
-------------------------------------------------------------------------
|    ___ _   _ ___                                                      |
|   / __| | | |_  )   Release 8.4.0 "Harrier"                           |
|   \__ \ |_| |/ /                                                      |
|   |___/\___//___|   Suite (Computational Fluid Dynamics Code)         |
|                                                                       |
-------------------------------------------------------------------------
| SU2 Project Website: https://su2code.github.io                        |
|                                                                       |
| The SU2 Project is maintained by the SU2 Foundation                   |
| (http://su2foundation.org)                                            |
-------------------------------------------------------------------------
| Copyright 2012-2026, SU2 Contributors                                 |
|                                                                       |
| SU2 is free software; you can redistribute it and/or                  |
| modify it under the terms of the GNU Lesser General Public            |
| License as published by the Free Software Foundation; either          |
| version 2.1 of the License, or (at your option) any later version.    |
|                                                                       |
| SU2 is distributed in the hope that it will be useful,                |
| but WITHOUT ANY WARRANTY; without even the implied warranty of        |
| MERCHANTABILITY or FITNESS FOR A PARTICULAR PURPOSE. See the GNU      |
| Lesser General Public License for more details.                       |
|                                                                       |
| You should have received a copy of the GNU Lesser General Public      |
| License along with SU2. If not, see <http://www.gnu.org/licenses/>.   |
-------------------------------------------------------------------------

Parsing config file for zone 0

----------------- Physical Case Definition ( Zone 0 ) -------------------
Incompressible RANS equations.
Turbulence model: Menter's k-omega SST-2003m with no production modification
using default hard coded lower limit clipping.
Hybrid RANS/LES: No Hybrid RANS/LES
No restart solution, use the values at infinity (freestream).
Dimensional simulation.
The reference area is 1 m^2.
The semi-span will be computed using the max y(3D) value.
The reference length is 1 m.
Input mesh file name: jet.su2

--------------- Space Numerical Integration ( Zone 0 ) ------------------
Flux difference splitting (FDS) upwind scheme for the flow inviscid terms.
Second order integration in space, with slope limiter.
No slope-limiting method. 
Average of gradients with correction (viscous flow terms).
Average of gradients with correction (viscous turbulence terms).
Gradient for upwind reconstruction: Green-Gauss.
Gradient for viscous and source terms: Green-Gauss.

--------------- Time Numerical Integration  ( Zone 0 ) ------------------
Local time stepping (steady state simulation).
Euler implicit method for the flow equations.
FGMRES is used for solving the linear system.
Using a ILU(0) preconditioning.
Convergence criteria of the linear solver: 1e-10.
Max number of linear iterations: 10.
No CFL adaptation.
Courant-Friedrichs-Lewy number:       25
Euler implicit time integration for the turbulence model.

------------------ Convergence Criteria  ( Zone 0 ) ---------------------
Maximum number of solver subiterations: 20000.
Begin convergence monitoring at iteration 10.
Residual minimum value: 1e-12.
Cauchy series min. value: 1e-10.
Number of Cauchy elements: 100.
Begin windowed time average at iteration 0.

-------------------- Output Information ( Zone 0 ) ----------------------
File writing frequency: 
+------------------------------------+
|                     File| Frequency|
+------------------------------------+
|                 PARAVIEW|       500|
|                  RESTART|       500|
+------------------------------------+
Writing the convergence history file every 1 inner iterations.
Writing the screen convergence history every 1 inner iterations.
The tabular file format is CSV (.csv).
Convergence history file name: history.
Forces breakdown file name: forces_breakdown.dat.
Surface file name: surface.
Volume file name: vol_solution.
Restart file name: restart_jet.

------------- Config File Boundary Information ( Zone 0 ) ---------------
+-----------------------------------------------------------------------+
|                        Marker Type|                        Marker Name|
+-----------------------------------------------------------------------+
|                         Euler wall|                           farfield|
+-----------------------------------------------------------------------+
|                     Symmetry plane|                           symmetry|
+-----------------------------------------------------------------------+
|                     Inlet boundary|                              inlet|
|                                   |                       inlet_coflow|
+-----------------------------------------------------------------------+
|                    Outlet boundary|                             outlet|
|                                   |                      outlet_coflow|
+-----------------------------------------------------------------------+

-------------------- Output Preprocessing ( Zone 0 ) --------------------

WARNING: SURFACE_PRESSURE_DROP can only be computed for at least 2 surfaces (outlet, inlet, ...)

Screen output fields: INNER_ITER, RMS_PRESSURE, RMS_VELOCITY-X, LIFT, DRAG
History output group(s): ITER, RMS_RES
Convergence field(s): RMS_PRESSURE
Warning: No (valid) fields chosen for time convergence monitoring. Time convergence monitoring inactive.
Volume output fields: PRIMITIVE, RESIDUAL, COORDINATES, SOLUTION

------------------- Geometry Preprocessing ( Zone 0 ) -------------------
Two dimensional problem.
480 grid points.
437 volume elements.
6 surface markers.
9 boundary elements in index 0 (Marker = inlet).
9 boundary elements in index 1 (Marker = outlet).
19 boundary elements in index 2 (Marker = symmetry).
14 boundary elements in index 3 (Marker = outlet_coflow).
14 boundary elements in index 4 (Marker = inlet_coflow).
19 boundary elements in index 5 (Marker = farfield).
437 quadrilaterals.
Setting point connectivity.
Renumbering points (Reverse Cuthill McKee Ordering).
Recomputing point connectivity.
Setting element connectivity.
Checking the numerical grid orientation.
All volume elements are correctly oriented.
There has been a re-orientation of 42 LINE surface elements.
Identifying edges and vertices.
Setting the control volume structure.
Area of the computational grid: 0.01.
Searching for the closest normal neighbors to the surfaces.
Storing a mapping from global to local point index.
Compute the surface curvature.
Max K: 371.805. Mean K: 27.1121. Standard deviation K: 88.4354.
Checking for periodicity.
Computing mesh quality statistics for the dual control volumes.
+--------------------------------------------------------------+
|           Mesh Quality Metric|        Minimum|        Maximum|
+--------------------------------------------------------------+
|    Orthogonality Angle (deg.)|        84.4374|        89.9077|
|     CV Face Area Aspect Ratio|        1.08929|        9.23091|
|           CV Sub-Volume Ratio|        1.00293|        5.78571|
+--------------------------------------------------------------+
Finding max control volume width.
Wetted area = 0 m^2.
Area projection in the x-plane = 0 m, y-plane = 0 m.
Max. coordinate in the x-direction = -1e+10 m, y-direction = -1e+10 m.
Min. coordinate in the x-direction = 1e+10 m, y-direction = 1e+10 m.
Computing wall distances.

-------------------- Solver Preprocessing ( Zone 0 ) --------------------
Incompressible flow: rho_ref, vel_ref, temp_ref, p_ref
are set to 1.0 in order to perform a dimensional calculation.
Force coefficients computed using initial values.
The reference area for force coeffs. is 1 m^2.
The reference length for force coeffs. is 1 m.
The pressure is decomposed into thermodynamic and dynamic components.
The initial value of the dynamic pressure is 0.
Mach number: 0.00293713, computed using the Bulk modulus.
For external flows, the initial state is imposed at the far-field.
Angle of attack (deg): 0, computed using the initial velocity.
Side slip angle (deg): 0, computed using the initial velocity.
Reynolds number per meter: 68474, computed using initial values.
Reynolds number is a byproduct of inputs only (not used internally).
SI units only. The grid should be dimensional (meters).
No energy equation.

-- Models:
+------------------------------------------------------------------------------+
|          Viscosity Model|        Conductivity Model|              Fluid Model|
+------------------------------------------------------------------------------+
|       CONSTANT_VISCOSITY|          CONSTANT_PRANDTL|         CONSTANT_DENSITY|
+------------------------------------------------------------------------------+
-- Fluid properties:
+------------------------------------------------------------------------------+
|                  Name|    Dim. value|    Ref. value|      Unit|Non-dim. value|
+------------------------------------------------------------------------------+
|             Viscosity|     1.789e-05|             1|   N.s/m^2|     1.789e-05|
+------------------------------------------------------------------------------+
|        Prandtl (Lam.)|             -|             -|         -|          0.72|
|       Prandtl (Turb.)|             -|             -|         -|           0.9|
+------------------------------------------------------------------------------+
|          Bulk Modulus|        142000|             1|        Pa|        142000|
+------------------------------------------------------------------------------+
-- Initial and free-stream conditions:
+------------------------------------------------------------------------------+
|                  Name|    Dim. value|    Ref. value|      Unit|Non-dim. value|
+------------------------------------------------------------------------------+
|      Dynamic Pressure|             0|             1|        Pa|             0|
|        Total Pressure|        0.6125|             1|        Pa|        0.6125|
|               Density|         1.225|             1|    kg/m^3|         1.225|
|            Velocity-X|             1|             1|       m/s|             1|
|            Velocity-Y|             0|             1|       m/s|             0|
|    Velocity Magnitude|             1|             1|       m/s|             1|
+------------------------------------------------------------------------------+
|             Viscosity|     1.789e-05|             1|   N.s/m^2|     1.789e-05|
|          Conductivity|             -|             1|   W/m^2.K|             -|
|     Turb. Kin. Energy|       0.00375|             1|   m^2/s^2|       0.00375|
|     Spec. Dissipation|       25.6778|             1|       1/s|       25.6778|
+------------------------------------------------------------------------------+
|           Mach Number|             -|             -|         -|    0.00293713|
|       Reynolds Number|             -|             -|         -|         68474|
+------------------------------------------------------------------------------+
Initialize Jacobian structure (Navier-Stokes). MG level: 0.
Initialize Jacobian structure (SST model).

------------------- Numerics Preprocessing ( Zone 0 ) -------------------

----------------- Integration Preprocessing ( Zone 0 ) ------------------

------------------- Iteration Preprocessing ( Zone 0 ) ------------------
Euler/Navier-Stokes/RANS fluid iteration.

------------------------------ Begin Solver -----------------------------

Simulation Run using the Single-zone Driver
+----------------------------------------------------------------+
|  Inner_Iter|      rms[P]|      rms[U]|          CL|          CD|
+----------------------------------------------------------------+
|           0|   -2.051774|   -0.344278|    0.000000|    0.000000|
|           1|   -1.499621|    1.494301|    0.000000|    0.000000|
|           2|   -2.150752|    0.900957|    0.000000|    0.000000|
|           3|   -2.040280|    0.317139|    0.000000|    0.000000|
|           4|   -2.283471|   -0.149228|    0.000000|    0.000000|
|           5|   -2.667809|   -0.404488|    0.000000|    0.000000|
|           6|   -2.690983|   -0.721127|    0.000000|    0.000000|
|           7|   -2.719167|   -0.725081|    0.000000|    0.000000|
|           8|   -2.931537|   -0.724894|    0.000000|    0.000000|
|           9|   -3.280023|   -0.790953|    0.000000|    0.000000|
|          10|   -3.320044|   -0.824775|    0.000000|    0.000000|
|          11|   -3.338381|   -0.810961|    0.000000|    0.000000|
|          12|   -3.438420|   -0.796607|    0.000000|    0.000000|
|          13|   -3.499929|   -0.787571|    0.000000|    0.000000|
|          14|   -3.508865|   -0.777620|    0.000000|    0.000000|
|          15|   -3.497718|   -0.766410|    0.000000|    0.000000|
|          16|   -3.483461|   -0.757295|    0.000000|    0.000000|
|          17|   -3.490973|   -0.748723|    0.000000|    0.000000|
|          18|   -3.499758|   -0.741532|    0.000000|    0.000000|
|          19|   -3.510430|   -0.734594|    0.000000|    0.000000|
|          20|   -3.513648|   -0.728410|    0.000000|    0.000000|
|          21|   -3.519418|   -0.723006|    0.000000|    0.000000|
|          22|   -3.515944|   -0.718866|    0.000000|    0.000000|
|          23|   -3.503310|   -0.715665|    0.000000|    0.000000|
|          24|   -3.488567|   -0.713648|    0.000000|    0.000000|
|          25|   -3.464763|   -0.713028|    0.000000|    0.000000|
|          26|   -3.438114|   -0.713714|    0.000000|    0.000000|
|          27|   -3.404571|   -0.716371|    0.000000|    0.000000|
|          28|   -3.370947|   -0.721969|    0.000000|    0.000000|
|          29|   -3.340887|   -0.732379|    0.000000|    0.000000|
|          30|   -3.317064|   -0.748445|    0.000000|    0.000000|
|          31|   -3.306016|   -0.769786|    0.000000|    0.000000|
|          32|   -3.305601|   -0.794480|    0.000000|    0.000000|
|          33|   -3.324901|   -0.819843|    0.000000|    0.000000|
|          34|   -3.347998|   -0.848079|    0.000000|    0.000000|
|          35|   -3.384041|   -0.879289|    0.000000|    0.000000|
|          36|   -3.432790|   -0.918067|    0.000000|    0.000000|
|          37|   -3.497656|   -0.962656|    0.000000|    0.000000|
|          38|   -3.578279|   -1.011121|    0.000000|    0.000000|
|          39|   -3.669106|   -1.057500|    0.000000|    0.000000|
|          40|   -3.752398|   -1.093940|    0.000000|    0.000000|
|          41|   -3.808823|   -1.117393|    0.000000|    0.000000|
|          42|   -3.840363|   -1.130108|    0.000000|    0.000000|
|          43|   -3.853306|   -1.138094|    0.000000|    0.000000|
|          44|   -3.852540|   -1.146252|    0.000000|    0.000000|
|          45|   -3.844267|   -1.157308|    0.000000|    0.000000|
|          46|   -3.838299|   -1.170879|    0.000000|    0.000000|
|          47|   -3.840310|   -1.184628|    0.000000|    0.000000|
|          48|   -3.851038|   -1.196441|    0.000000|    0.000000|
|          49|   -3.868845|   -1.205429|    0.000000|    0.000000|
|          50|   -3.892674|   -1.212103|    0.000000|    0.000000|
|          51|   -3.920740|   -1.217937|    0.000000|    0.000000|
|          52|   -3.952465|   -1.223854|    0.000000|    0.000000|
|          53|   -3.979987|   -1.230100|    0.000000|    0.000000|
|          54|   -3.994127|   -1.236707|    0.000000|    0.000000|
|          55|   -3.994093|   -1.243875|    0.000000|    0.000000|
|          56|   -3.987401|   -1.251704|    0.000000|    0.000000|
|          57|   -3.983985|   -1.259767|    0.000000|    0.000000|
|          58|   -3.986713|   -1.267852|    0.000000|    0.000000|
|          59|   -3.995873|   -1.275590|    0.000000|    0.000000|
|          60|   -4.007017|   -1.283453|    0.000000|    0.000000|
|          61|   -4.017430|   -1.291735|    0.000000|    0.000000|
|          62|   -4.025355|   -1.300107|    0.000000|    0.000000|
|          63|   -4.031105|   -1.307378|    0.000000|    0.000000|
|          64|   -4.038840|   -1.313640|    0.000000|    0.000000|
|          65|   -4.052550|   -1.318920|    0.000000|    0.000000|
|          66|   -4.069843|   -1.323398|    0.000000|    0.000000|
|          67|   -4.080841|   -1.327734|    0.000000|    0.000000|
|          68|   -4.077916|   -1.332701|    0.000000|    0.000000|
|          69|   -4.067854|   -1.338726|    0.000000|    0.000000|
|          70|   -4.062013|   -1.345694|    0.000000|    0.000000|
|          71|   -4.065737|   -1.352754|    0.000000|    0.000000|
|          72|   -4.077753|   -1.359408|    0.000000|    0.000000|
|          73|   -4.096055|   -1.365918|    0.000000|    0.000000|
|          74|   -4.114329|   -1.373135|    0.000000|    0.000000|
|          75|   -4.125012|   -1.381284|    0.000000|    0.000000|
|          76|   -4.127165|   -1.389242|    0.000000|    0.000000|
|          77|   -4.125768|   -1.396535|    0.000000|    0.000000|
|          78|   -4.130023|   -1.402642|    0.000000|    0.000000|
|          79|   -4.143305|   -1.407536|    0.000000|    0.000000|
|          80|   -4.159525|   -1.411833|    0.000000|    0.000000|
|          81|   -4.165466|   -1.416174|    0.000000|    0.000000|
|          82|   -4.160273|   -1.421511|    0.000000|    0.000000|
|          83|   -4.154151|   -1.428124|    0.000000|    0.000000|
|          84|   -4.154308|   -1.435387|    0.000000|    0.000000|
|          85|   -4.161966|   -1.442607|    0.000000|    0.000000|
|          86|   -4.176393|   -1.449682|    0.000000|    0.000000|
|          87|   -4.193021|   -1.457299|    0.000000|    0.000000|
|          88|   -4.204119|   -1.465887|    0.000000|    0.000000|
|          89|   -4.207253|   -1.475154|    0.000000|    0.000000|
|          90|   -4.205535|   -1.483906|    0.000000|    0.000000|
|          91|   -4.207191|   -1.491496|    0.000000|    0.000000|
|          92|   -4.217568|   -1.497888|    0.000000|    0.000000|
|          93|   -4.235588|   -1.503670|    0.000000|    0.000000|
|          94|   -4.247651|   -1.509210|    0.000000|    0.000000|
|          95|   -4.245799|   -1.515381|    0.000000|    0.000000|
|          96|   -4.237854|   -1.522533|    0.000000|    0.000000|
|          97|   -4.233001|   -1.530374|    0.000000|    0.000000|
|          98|   -4.236192|   -1.538273|    0.000000|    0.000000|
|          99|   -4.248687|   -1.546093|    0.000000|    0.000000|
|         100|   -4.268006|   -1.554176|    0.000000|    0.000000|
|         101|   -4.284888|   -1.563269|    0.000000|    0.000000|
|         102|   -4.294338|   -1.573120|    0.000000|    0.000000|
|         103|   -4.295212|   -1.582865|    0.000000|    0.000000|
|         104|   -4.296188|   -1.591652|    0.000000|    0.000000|
|         105|   -4.304695|   -1.599249|    0.000000|    0.000000|
|         106|   -4.321570|   -1.606107|    0.000000|    0.000000|
|         107|   -4.337718|   -1.612726|    0.000000|    0.000000|
|         108|   -4.341988|   -1.619802|    0.000000|    0.000000|
|         109|   -4.336979|   -1.627747|    0.000000|    0.000000|
|         110|   -4.331279|   -1.636236|    0.000000|    0.000000|
|         111|   -4.331984|   -1.644777|    0.000000|    0.000000|
|         112|   -4.342005|   -1.653132|    0.000000|    0.000000|
|         113|   -4.360964|   -1.661595|    0.000000|    0.000000|
|         114|   -4.380003|   -1.670848|    0.000000|    0.000000|
|         115|   -4.393052|   -1.680958|    0.000000|    0.000000|
|         116|   -4.397196|   -1.691076|    0.000000|    0.000000|
|         117|   -4.399009|   -1.700485|    0.000000|    0.000000|
|         118|   -4.406467|   -1.708934|    0.000000|    0.000000|
|         119|   -4.421724|   -1.716712|    0.000000|    0.000000|
|         120|   -4.438539|   -1.724340|    0.000000|    0.000000|
|         121|   -4.445766|   -1.732311|    0.000000|    0.000000|
|         122|   -4.442924|   -1.740952|    0.000000|    0.000000|
|         123|   -4.437882|   -1.749962|    0.000000|    0.000000|
|         124|   -4.438201|   -1.758859|    0.000000|    0.000000|
|         125|   -4.447823|   -1.767649|    0.000000|    0.000000|
|         126|   -4.465907|   -1.776541|    0.000000|    0.000000|
|         127|   -4.485385|   -1.786249|    0.000000|    0.000000|
|         128|   -4.498939|   -1.796760|    0.000000|    0.000000|
|         129|   -4.504387|   -1.807401|    0.000000|    0.000000|
|         130|   -4.506863|   -1.817418|    0.000000|    0.000000|
|         131|   -4.514970|   -1.826609|    0.000000|    0.000000|
|         132|   -4.530081|   -1.835138|    0.000000|    0.000000|
|         133|   -4.547835|   -1.843716|    0.000000|    0.000000|
|         134|   -4.556990|   -1.852658|    0.000000|    0.000000|
|         135|   -4.555269|   -1.862092|    0.000000|    0.000000|
|         136|   -4.550101|   -1.871693|    0.000000|    0.000000|
|         137|   -4.549807|   -1.880966|    0.000000|    0.000000|
|         138|   -4.558915|   -1.890027|    0.000000|    0.000000|
|         139|   -4.576592|   -1.899173|    0.000000|    0.000000|
|         140|   -4.596697|   -1.909074|    0.000000|    0.000000|
|         141|   -4.611351|   -1.919833|    0.000000|    0.000000|
|         142|   -4.618552|   -1.930814|    0.000000|    0.000000|
|         143|   -4.622717|   -1.941231|    0.000000|    0.000000|
|         144|   -4.632049|   -1.950810|    0.000000|    0.000000|
|         145|   -4.647836|   -1.959918|    0.000000|    0.000000|
|         146|   -4.666070|   -1.969033|    0.000000|    0.000000|
|         147|   -4.676045|   -1.978618|    0.000000|    0.000000|
|         148|   -4.675284|   -1.988511|    0.000000|    0.000000|
|         149|   -4.670846|   -1.998363|    0.000000|    0.000000|
|         150|   -4.671700|   -2.007791|    0.000000|    0.000000|
|         151|   -4.681303|   -2.016731|    0.000000|    0.000000|
|         152|   -4.698198|   -2.025819|    0.000000|    0.000000|
|         153|   -4.716629|   -2.035769|    0.000000|    0.000000|
|         154|   -4.730580|   -2.046609|    0.000000|    0.000000|
|         155|   -4.738254|   -2.057646|    0.000000|    0.000000|
|         156|   -4.743893|   -2.068213|    0.000000|    0.000000|
|         157|   -4.754395|   -2.078006|    0.000000|    0.000000|
|         158|   -4.770905|   -2.087433|    0.000000|    0.000000|
|         159|   -4.787911|   -2.097001|    0.000000|    0.000000|
|         160|   -4.796490|   -2.107015|    0.000000|    0.000000|
|         161|   -4.795478|   -2.117193|    0.000000|    0.000000|
|         162|   -4.792164|   -2.127088|    0.000000|    0.000000|
|         163|   -4.793965|   -2.136269|    0.000000|    0.000000|
|         164|   -4.803973|   -2.144991|    0.000000|    0.000000|
|         165|   -4.820750|   -2.154040|    0.000000|    0.000000|
|         166|   -4.838652|   -2.164079|    0.000000|    0.000000|
|         167|   -4.851734|   -2.175005|    0.000000|    0.000000|
|         168|   -4.859299|   -2.186137|    0.000000|    0.000000|
|         169|   -4.866213|   -2.196761|    0.000000|    0.000000|
|         170|   -4.878252|   -2.206779|    0.000000|    0.000000|
|         171|   -4.895048|   -2.216503|    0.000000|    0.000000|
|         172|   -4.910733|   -2.226452|    0.000000|    0.000000|
|         173|   -4.918247|   -2.236733|    0.000000|    0.000000|
|         174|   -4.917160|   -2.246990|    0.000000|    0.000000|
|         175|   -4.914125|   -2.256651|    0.000000|    0.000000|
|         176|   -4.916173|   -2.265485|    0.000000|    0.000000|
|         177|   -4.926493|   -2.273937|    0.000000|    0.000000|
|         178|   -4.943006|   -2.282850|    0.000000|    0.000000|
|         179|   -4.959891|   -2.292830|    0.000000|    0.000000|
|         180|   -4.972058|   -2.303739|    0.000000|    0.000000|
|         181|   -4.979802|   -2.314832|    0.000000|    0.000000|
|         182|   -4.988158|   -2.325464|    0.000000|    0.000000|
|         183|   -5.001062|   -2.335563|    0.000000|    0.000000|
|         184|   -5.017877|   -2.345520|    0.000000|    0.000000|
|         185|   -5.032361|   -2.355673|    0.000000|    0.000000|
|         186|   -5.038515|   -2.366028|    0.000000|    0.000000|
|         187|   -5.036955|   -2.376124|    0.000000|    0.000000|
|         188|   -5.034195|   -2.385412|    0.000000|    0.000000|
|         189|   -5.036995|   -2.393830|    0.000000|    0.000000|
|         190|   -5.047671|   -2.401979|    0.000000|    0.000000|
|         191|   -5.063555|   -2.410763|    0.000000|    0.000000|
|         192|   -5.079183|   -2.420690|    0.000000|    0.000000|
|         193|   -5.090492|   -2.431529|    0.000000|    0.000000|
|         194|   -5.098426|   -2.442583|    0.000000|    0.000000|
|         195|   -5.107686|   -2.453215|    0.000000|    0.000000|
|         196|   -5.121458|   -2.463403|    0.000000|    0.000000|
|         197|   -5.137826|   -2.473511|    0.000000|    0.000000|
|         198|   -5.150602|   -2.483816|    0.000000|    0.000000|
|         199|   -5.154845|   -2.494152|    0.000000|    0.000000|
|         200|   -5.152232|   -2.503977|    0.000000|    0.000000|
|         201|   -5.149549|   -2.512806|    0.000000|    0.000000|
|         202|   -5.152731|   -2.520775|    0.000000|    0.000000|
|         203|   -5.163588|   -2.528615|    0.000000|    0.000000|
|         204|   -5.179036|   -2.537289|    0.000000|    0.000000|
|         205|   -5.194173|   -2.547208|    0.000000|    0.000000|
|         206|   -5.205433|   -2.558056|    0.000000|    0.000000|
|         207|   -5.214093|   -2.569099|    0.000000|    0.000000|
|         208|   -5.224422|   -2.579795|    0.000000|    0.000000|
|         209|   -5.238783|   -2.590120|    0.000000|    0.000000|
|         210|   -5.254551|   -2.600390|    0.000000|    0.000000|
|         211|   -5.265753|   -2.610821|    0.000000|    0.000000|
|         212|   -5.268371|   -2.621102|    0.000000|    0.000000|
|         213|   -5.265415|   -2.630611|    0.000000|    0.000000|
|         214|   -5.263288|   -2.638926|    0.000000|    0.000000|
|         215|   -5.267085|   -2.646339|    0.000000|    0.000000|
|         216|   -5.277877|   -2.653799|    0.000000|    0.000000|
|         217|   -5.292760|   -2.662286|    0.000000|    0.000000|
|         218|   -5.307149|   -2.672164|    0.000000|    0.000000|
|         219|   -5.318421|   -2.683024|    0.000000|    0.000000|
|         220|   -5.328121|   -2.694082|    0.000000|    0.000000|
|         221|   -5.339537|   -2.704852|    0.000000|    0.000000|
|         222|   -5.354112|   -2.715315|    0.000000|    0.000000|
|         223|   -5.368638|   -2.725733|    0.000000|    0.000000|
|         224|   -5.377518|   -2.736170|    0.000000|    0.000000|
|         225|   -5.378579|   -2.746182|    0.000000|    0.000000|
|         226|   -5.374584|   -2.755139|    0.000000|    0.000000|
|         227|   -5.371946|   -2.762777|    0.000000|    0.000000|
|         228|   -5.375528|   -2.769601|    0.000000|    0.000000|
|         229|   -5.385959|   -2.776694|    0.000000|    0.000000|
|         230|   -5.400159|   -2.785028|    0.000000|    0.000000|
|         231|   -5.413911|   -2.794882|    0.000000|    0.000000|
|         232|   -5.425261|   -2.805783|    0.000000|    0.000000|
|         233|   -5.435833|   -2.816959|    0.000000|    0.000000|
|         234|   -5.448435|   -2.827901|    0.000000|    0.000000|
|         235|   -5.463332|   -2.838567|    0.000000|    0.000000|
|         236|   -5.476726|   -2.849108|    0.000000|    0.000000|
|         237|   -5.483323|   -2.859422|    0.000000|    0.000000|
|         238|   -5.481563|   -2.869001|    0.000000|    0.000000|
|         239|   -5.475770|   -2.877257|    0.000000|    0.000000|
|         240|   -5.472412|   -2.884117|    0.000000|    0.000000|
|         241|   -5.475581|   -2.890309|    0.000000|    0.000000|
|         242|   -5.485385|   -2.897026|    0.000000|    0.000000|
|         243|   -5.498830|   -2.905224|    0.000000|    0.000000|
|         244|   -5.512296|   -2.915089|    0.000000|    0.000000|
|         245|   -5.524251|   -2.926067|    0.000000|    0.000000|
|         246|   -5.535959|   -2.937361|    0.000000|    0.000000|
|         247|   -5.549242|   -2.948452|    0.000000|    0.000000|
|         248|   -5.563388|   -2.959245|    0.000000|    0.000000|
|         249|   -5.574379|   -2.969774|    0.000000|    0.000000|
|         250|   -5.577880|   -2.979801|    0.000000|    0.000000|
|         251|   -5.573768|   -2.988755|    0.000000|    0.000000|
|         252|   -5.566891|   -2.996148|    0.000000|    0.000000|
|         253|   -5.563203|   -3.002129|    0.000000|    0.000000|
|         254|   -5.566055|   -3.007643|    0.000000|    0.000000|
|         255|   -5.575202|   -3.013972|    0.000000|    0.000000|
|         256|   -5.587846|   -3.022008|    0.000000|    0.000000|
|         257|   -5.600925|   -3.031838|    0.000000|    0.000000|
|         258|   -5.613178|   -3.042849|    0.000000|    0.000000|
|         259|   -5.625421|   -3.054219|    0.000000|    0.000000|
|         260|   -5.638499|   -3.065401|    0.000000|    0.000000|
|         261|   -5.650951|   -3.076233|    0.000000|    0.000000|
|         262|   -5.659186|   -3.086585|    0.000000|    0.000000|
|         263|   -5.659716|   -3.096088|    0.000000|    0.000000|
|         264|   -5.653509|   -3.104165|    0.000000|    0.000000|
|         265|   -5.645952|   -3.110506|    0.000000|    0.000000|
|         266|   -5.642227|   -3.115514|    0.000000|    0.000000|
|         267|   -5.644825|   -3.120287|    0.000000|    0.000000|
|         268|   -5.653207|   -3.126149|    0.000000|    0.000000|
|         269|   -5.664850|   -3.133941|    0.000000|    0.000000|
|         270|   -5.677206|   -3.143673|    0.000000|    0.000000|
|         271|   -5.689276|   -3.154673|    0.000000|    0.000000|
|         272|   -5.701413|   -3.166069|    0.000000|    0.000000|
|         273|   -5.713519|   -3.177247|    0.000000|    0.000000|
|         274|   -5.723540|   -3.187894|    0.000000|    0.000000|
|         275|   -5.728042|   -3.197758|    0.000000|    0.000000|
|         276|   -5.725568|   -3.206419|    0.000000|    0.000000|
|         277|   -5.718240|   -3.213346|    0.000000|    0.000000|
|         278|   -5.710626|   -3.218407|    0.000000|    0.000000|
|         279|   -5.706969|   -3.222238|    0.000000|    0.000000|
|         280|   -5.709134|   -3.226134|    0.000000|    0.000000|
|         281|   -5.716484|   -3.231434|    0.000000|    0.000000|
|         282|   -5.726894|   -3.238854|    0.000000|    0.000000|
|         283|   -5.738252|   -3.248287|    0.000000|    0.000000|
|         284|   -5.749528|   -3.259021|    0.000000|    0.000000|
|         285|   -5.760421|   -3.270123|    0.000000|    0.000000|
|         286|   -5.770200|   -3.280924|    0.000000|    0.000000|
|         287|   -5.776968|   -3.291013|    0.000000|    0.000000|
|         288|   -5.778475|   -3.299999|    0.000000|    0.000000|
|         289|   -5.774193|   -3.307374|    0.000000|    0.000000|
|         290|   -5.766345|   -3.312754|    0.000000|    0.000000|
|         291|   -5.759069|   -3.316295|    0.000000|    0.000000|
|         292|   -5.755736|   -3.318865|    0.000000|    0.000000|
|         293|   -5.757602|   -3.321812|    0.000000|    0.000000|
|         294|   -5.763904|   -3.326368|    0.000000|    0.000000|
|         295|   -5.772768|   -3.333171|    0.000000|    0.000000|
|         296|   -5.782587|   -3.342008|    0.000000|    0.000000|
|         297|   -5.792333|   -3.352081|    0.000000|    0.000000|
|         298|   -5.801334|   -3.362494|    0.000000|    0.000000|
|         299|   -5.808573|   -3.372514|    0.000000|    0.000000|
|         300|   -5.812479|   -3.381572|    0.000000|    0.000000|
|         301|   -5.811599|   -3.389142|    0.000000|    0.000000|
|         302|   -5.806219|   -3.394831|    0.000000|    0.000000|
|         303|   -5.798831|   -3.398454|    0.000000|    0.000000|
|         304|   -5.792551|   -3.400377|    0.000000|    0.000000|
|         305|   -5.789687|   -3.401635|    0.000000|    0.000000|
|         306|   -5.791066|   -3.403583|    0.000000|    0.000000|
|         307|   -5.796106|   -3.407328|    0.000000|    0.000000|
|         308|   -5.803444|   -3.413314|    0.000000|    0.000000|
|         309|   -5.811660|   -3.421219|    0.000000|    0.000000|
|         310|   -5.819676|   -3.430279|    0.000000|    0.000000|
|         311|   -5.826604|   -3.439566|    0.000000|    0.000000|
|         312|   -5.831427|   -3.448276|    0.000000|    0.000000|
|         313|   -5.833016|   -3.455785|    0.000000|    0.000000|
|         314|   -5.830807|   -3.461600|    0.000000|    0.000000|
|         315|   -5.825515|   -3.465385|    0.000000|    0.000000|
|         316|   -5.819083|   -3.467166|    0.000000|    0.000000|
|         317|   -5.813806|   -3.467531|    0.000000|    0.000000|
|         318|   -5.811349|   -3.467556|    0.000000|    0.000000|
|         319|   -5.812267|   -3.468506|    0.000000|    0.000000|
|         320|   -5.816079|   -3.471291|    0.000000|    0.000000|
|         321|   -5.821742|   -3.476176|    0.000000|    0.000000|
|         322|   -5.828119|   -3.482695|    0.000000|    0.000000|
|         323|   -5.834127|   -3.490186|    0.000000|    0.000000|
|         324|   -5.838878|   -3.497747|    0.000000|    0.000000|
|         325|   -5.841522|   -3.504586|    0.000000|    0.000000|
|         326|   -5.841410|   -3.510110|    0.000000|    0.000000|
|         327|   -5.838461|   -3.513908|    0.000000|    0.000000|
|         328|   -5.833484|   -3.515800|    0.000000|    0.000000|
|         329|   -5.828007|   -3.515982|    0.000000|    0.000000|
|         330|   -5.823657|   -3.515090|    0.000000|    0.000000|
|         331|   -5.821552|   -3.514164|    0.000000|    0.000000|
|         332|   -5.822010|   -3.514246|    0.000000|    0.000000|
|         333|   -5.824652|   -3.516016|    0.000000|    0.000000|
|         334|   -5.828699|   -3.519619|    0.000000|    0.000000|
|         335|   -5.833252|   -3.524662|    0.000000|    0.000000|
|         336|   -5.837455|   -3.530318|    0.000000|    0.000000|
|         337|   -5.840477|   -3.535898|    0.000000|    0.000000|
|         338|   -5.841669|   -3.540730|    0.000000|    0.000000|
|         339|   -5.840667|   -3.544284|    0.000000|    0.000000|
|         340|   -5.837597|   -3.546242|    0.000000|    0.000000|
|         341|   -5.833195|   -3.546521|    0.000000|    0.000000|
|         342|   -5.828608|   -3.545454|    0.000000|    0.000000|
|         343|   -5.824982|   -3.543702|    0.000000|    0.000000|
|         344|   -5.823080|   -3.542130|    0.000000|    0.000000|
|         345|   -5.823109|   -3.541533|    0.000000|    0.000000|
|         346|   -5.824777|   -3.542388|    0.000000|    0.000000|
|         347|   -5.827481|   -3.544727|    0.000000|    0.000000|
|         348|   -5.830509|   -3.548183|    0.000000|    0.000000|
|         349|   -5.833160|   -3.552144|    0.000000|    0.000000|
|         350|   -5.834823|   -3.555947|    0.000000|    0.000000|
|         351|   -5.835025|   -3.559026|    0.000000|    0.000000|
|         352|   -5.833559|   -3.560952|    0.000000|    0.000000|
|         353|   -5.830626|   -3.561512|    0.000000|    0.000000|
|         354|   -5.826834|   -3.560757|    0.000000|    0.000000|
|         355|   -5.823020|   -3.559021|    0.000000|    0.000000|
|         356|   -5.819979|   -3.556883|    0.000000|    0.000000|
|         357|   -5.818227|   -3.555027|    0.000000|    0.000000|
|         358|   -5.817892|   -3.554032|    0.000000|    0.000000|
|         359|   -5.818753|   -3.554210|    0.000000|    0.000000|
|         360|   -5.820359|   -3.555535|    0.000000|    0.000000|
|         361|   -5.822165|   -3.557687|    0.000000|    0.000000|
|         362|   -5.823626|   -3.560170|    0.000000|    0.000000|
|         363|   -5.824270|   -3.562457|    0.000000|    0.000000|
|         364|   -5.823769|   -3.564099|    0.000000|    0.000000|
|         365|   -5.822034|   -3.564787|    0.000000|    0.000000|
|         366|   -5.819266|   -3.564390|    0.000000|    0.000000|
|         367|   -5.815923|   -3.562998|    0.000000|    0.000000|
|         368|   -5.812618|   -3.560923|    0.000000|    0.000000|
|         369|   -5.809913|   -3.558637|    0.000000|    0.000000|
|         370|   -5.808163|   -3.556652|    0.000000|    0.000000|
|         371|   -5.807447|   -3.555376|    0.000000|    0.000000|
|         372|   -5.807595|   -3.555006|    0.000000|    0.000000|
|         373|   -5.808270|   -3.555484|    0.000000|    0.000000|
|         374|   -5.809048|   -3.556538|    0.000000|    0.000000|
|         375|   -5.809485|   -3.557776|    0.000000|    0.000000|
|         376|   -5.809249|   -3.558786|    0.000000|    0.000000|
|         377|   -5.808130|   -3.559244|    0.000000|    0.000000|
|         378|   -5.806098|   -3.558939|    0.000000|    0.000000|
|         379|   -5.803338|   -3.557803|    0.000000|    0.000000|
|         380|   -5.800203|   -3.555944|    0.000000|    0.000000|
|         381|   -5.797127|   -3.553624|    0.000000|    0.000000|
|         382|   -5.794496|   -3.551206|    0.000000|    0.000000|
|         383|   -5.792547|   -3.549059|    0.000000|    0.000000|
|         384|   -5.791329|   -3.547438|    0.000000|    0.000000|
|         385|   -5.790705|   -3.546392|    0.000000|    0.000000|
|         386|   -5.790399|   -3.545964|    0.000000|    0.000000|
|         387|   -5.790045|   -3.545903|    0.000000|    0.000000|
|         388|   -5.789363|   -3.545926|    0.000000|    0.000000|
|         389|   -5.788161|   -3.545760|    0.000000|    0.000000|
|         390|   -5.786328|   -3.545089|    0.000000|    0.000000|
|         391|   -5.783852|   -3.543852|    0.000000|    0.000000|
|         392|   -5.780891|   -3.542032|    0.000000|    0.000000|
|         393|   -5.777711|   -3.539717|    0.000000|    0.000000|
|         394|   -5.774609|   -3.537105|    0.000000|    0.000000|
|         395|   -5.771839|   -3.534455|    0.000000|    0.000000|
|         396|   -5.769544|   -3.532016|    0.000000|    0.000000|
|         397|   -5.767743|   -3.529975|    0.000000|    0.000000|
|         398|   -5.766329|   -3.528386|    0.000000|    0.000000|
|         399|   -5.765123|   -3.527196|    0.000000|    0.000000|
|         400|   -5.763907|   -3.526262|    0.000000|    0.000000|
|         401|   -5.762473|   -3.525383|    0.000000|    0.000000|
|         402|   -5.760666|   -3.524359|    0.000000|    0.000000|
|         403|   -5.758406|   -3.523027|    0.000000|    0.000000|
|         404|   -5.755717|   -3.521298|    0.000000|    0.000000|
|         405|   -5.752719|   -3.519164|    0.000000|    0.000000|
|         406|   -5.749591|   -3.516697|    0.000000|    0.000000|
|         407|   -5.746536|   -3.514045|    0.000000|    0.000000|
|         408|   -5.743724|   -3.511391|    0.000000|    0.000000|
|         409|   -5.741252|   -3.508904|    0.000000|    0.000000|
|         410|   -5.739123|   -3.506699|    0.000000|    0.000000|
|         411|   -5.737261|   -3.504812|    0.000000|    0.000000|
|         412|   -5.735537|   -3.503198|    0.000000|    0.000000|
|         413|   -5.733795|   -3.501748|    0.000000|    0.000000|
|         414|   -5.731889|   -3.500320|    0.000000|    0.000000|
|         415|   -5.729713|   -3.498772|    0.000000|    0.000000|
|         416|   -5.727218|   -3.496995|    0.000000|    0.000000|
|         417|   -5.724427|   -3.494936|    0.000000|    0.000000|
|         418|   -5.721423|   -3.492588|    0.000000|    0.000000|
|         419|   -5.718337|   -3.490014|    0.000000|    0.000000|
|         420|   -5.715291|   -3.487317|    0.000000|    0.000000|
|         421|   -5.712412|   -3.484626|    0.000000|    0.000000|
|         422|   -5.709772|   -3.482059|    0.000000|    0.000000|
|         423|   -5.707364|   -3.479691|    0.000000|    0.000000|
|         424|   -5.705129|   -3.477540|    0.000000|    0.000000|
|         425|   -5.702973|   -3.475566|    0.000000|    0.000000|
|         426|   -5.700790|   -3.473687|    0.000000|    0.000000|
|         427|   -5.698469|   -3.471795|    0.000000|    0.000000|
|         428|   -5.695931|   -3.469786|    0.000000|    0.000000|
|         429|   -5.693154|   -3.467594|    0.000000|    0.000000|
|         430|   -5.690160|   -3.465188|    0.000000|    0.000000|
|         431|   -5.687016|   -3.462575|    0.000000|    0.000000|
|         432|   -5.683809|   -3.459805|    0.000000|    0.000000|
|         433|   -5.680635|   -3.456956|    0.000000|    0.000000|
|         434|   -5.677573|   -3.454118|    0.000000|    0.000000|
|         435|   -5.674663|   -3.451369|    0.000000|    0.000000|
|         436|   -5.671900|   -3.448751|    0.000000|    0.000000|
|         437|   -5.669248|   -3.446272|    0.000000|    0.000000|
|         438|   -5.666640|   -3.443904|    0.000000|    0.000000|
|         439|   -5.664003|   -3.441586|    0.000000|    0.000000|
|         440|   -5.661266|   -3.439246|    0.000000|    0.000000|
|         441|   -5.658374|   -3.436815|    0.000000|    0.000000|
|         442|   -5.655311|   -3.434249|    0.000000|    0.000000|
|         443|   -5.652095|   -3.431527|    0.000000|    0.000000|
|         444|   -5.648774|   -3.428661|    0.000000|    0.000000|
|         445|   -5.645438|   -3.425677|    0.000000|    0.000000|
|         446|   -5.642139|   -3.422634|    0.000000|    0.000000|
|         447|   -5.638921|   -3.419611|    0.000000|    0.000000|
|         448|   -5.635812|   -3.416658|    0.000000|    0.000000|
|         449|   -5.632813|   -3.413805|    0.000000|    0.000000|
|         450|   -5.629892|   -3.411055|    0.000000|    0.000000|
|         451|   -5.627000|   -3.408385|    0.000000|    0.000000|
|         452|   -5.624087|   -3.405752|    0.000000|    0.000000|
|         453|   -5.621107|   -3.403110|    0.000000|    0.000000|
|         454|   -5.618031|   -3.400415|    0.000000|    0.000000|
|         455|   -5.614846|   -3.397632|    0.000000|    0.000000|
|         456|   -5.611564|   -3.394718|    0.000000|    0.000000|
|         457|   -5.608211|   -3.391707|    0.000000|    0.000000|
|         458|   -5.604831|   -3.388631|    0.000000|    0.000000|
|         459|   -5.601460|   -3.385522|    0.000000|    0.000000|
|         460|   -5.598118|   -3.382409|    0.000000|    0.000000|
|         461|   -5.594827|   -3.379330|    0.000000|    0.000000|
|         462|   -5.591593|   -3.376307|    0.000000|    0.000000|
|         463|   -5.588400|   -3.373341|    0.000000|    0.000000|
|         464|   -5.585216|   -3.370417|    0.000000|    0.000000|
|         465|   -5.582008|   -3.367507|    0.000000|    0.000000|
|         466|   -5.578741|   -3.364575|    0.000000|    0.000000|
|         467|   -5.575395|   -3.361590|    0.000000|    0.000000|
|         468|   -5.571970|   -3.358536|    0.000000|    0.000000|
|         469|   -5.568478|   -3.355407|    0.000000|    0.000000|
|         470|   -5.564932|   -3.352205|    0.000000|    0.000000|
|         471|   -5.561353|   -3.348945|    0.000000|    0.000000|
|         472|   -5.557770|   -3.345653|    0.000000|    0.000000|
|         473|   -5.554208|   -3.342358|    0.000000|    0.000000|
|         474|   -5.550678|   -3.339082|    0.000000|    0.000000|
|         475|   -5.547177|   -3.335835|    0.000000|    0.000000|
|         476|   -5.543694|   -3.332615|    0.000000|    0.000000|
|         477|   -5.540209|   -3.329412|    0.000000|    0.000000|
|         478|   -5.536704|   -3.326210|    0.000000|    0.000000|
|         479|   -5.533159|   -3.322989|    0.000000|    0.000000|
|         480|   -5.529561|   -3.319730|    0.000000|    0.000000|
|         481|   -5.525906|   -3.316421|    0.000000|    0.000000|
|         482|   -5.522202|   -3.313059|    0.000000|    0.000000|
|         483|   -5.518458|   -3.309643|    0.000000|    0.000000|
|         484|   -5.514690|   -3.306184|    0.000000|    0.000000|
|         485|   -5.510914|   -3.302699|    0.000000|    0.000000|
|         486|   -5.507144|   -3.299207|    0.000000|    0.000000|
|         487|   -5.503388|   -3.295721|    0.000000|    0.000000|
|         488|   -5.499647|   -3.292247|    0.000000|    0.000000|
|         489|   -5.495912|   -3.288786|    0.000000|    0.000000|
|         490|   -5.492172|   -3.285330|    0.000000|    0.000000|
|         491|   -5.488411|   -3.281866|    0.000000|    0.000000|
|         492|   -5.484617|   -3.278381|    0.000000|    0.000000|
|         493|   -5.480782|   -3.274863|    0.000000|    0.000000|
|         494|   -5.476903|   -3.271304|    0.000000|    0.000000|
|         495|   -5.472987|   -3.267703|    0.000000|    0.000000|
|         496|   -5.469041|   -3.264063|    0.000000|    0.000000|
|         497|   -5.465077|   -3.260394|    0.000000|    0.000000|
|         498|   -5.461109|   -3.256707|    0.000000|    0.000000|
|         499|   -5.457144|   -3.252992|    0.000000|    0.000000|
|         500|   -5.453196|   -3.249283|    0.000000|    0.000000|
+-----------------------------------------------------------------------+
|        File Writing Summary       |              Filename             |
+-----------------------------------------------------------------------+
|Paraview                           |vol_solution.vtu                   |
|SU2 binary restart                 |restart_jet.dat                    |
+-----------------------------------------------------------------------+
+----------------------------------------------------------------+
|  Inner_Iter|      rms[P]|      rms[U]|          CL|          CD|
+----------------------------------------------------------------+
|         501|   -5.449256|   -3.245579|    0.000000|    0.000000|
|         502|   -5.445316|   -3.241874|    0.000000|    0.000000|
|         503|   -5.441346|   -3.238154|    0.000000|    0.000000|
|         504|   -5.437332|   -3.234412|    0.000000|    0.000000|
|         505|   -5.433285|   -3.230649|    0.000000|    0.000000|
|         506|   -5.429209|   -3.226862|    0.000000|    0.000000|
|         507|   -5.425103|   -3.223047|    0.000000|    0.000000|
|         508|   -5.420969|   -3.219200|    0.000000|    0.000000|
|         509|   -5.416808|   -3.215322|    0.000000|    0.000000|
|         510|   -5.412629|   -3.211418|    0.000000|    0.000000|
|         511|   -5.408439|   -3.207496|    0.000000|    0.000000|
|         512|   -5.404245|   -3.203565|    0.000000|    0.000000|
|         513|   -5.400050|   -3.199628|    0.000000|    0.000000|
|         514|   -5.395851|   -3.195687|    0.000000|    0.000000|
|         515|   -5.391646|   -3.191740|    0.000000|    0.000000|
|         516|   -5.387428|   -3.187785|    0.000000|    0.000000|
|         517|   -5.383192|   -3.183815|    0.000000|    0.000000|
|         518|   -5.378933|   -3.179827|    0.000000|    0.000000|
|         519|   -5.374648|   -3.175814|    0.000000|    0.000000|
|         520|   -5.370337|   -3.171774|    0.000000|    0.000000|
|         521|   -5.366001|   -3.167707|    0.000000|    0.000000|
|         522|   -5.361646|   -3.163617|    0.000000|    0.000000|
|         523|   -5.357274|   -3.159503|    0.000000|    0.000000|
|         524|   -5.352891|   -3.155370|    0.000000|    0.000000|
|         525|   -5.348501|   -3.151224|    0.000000|    0.000000|
|         526|   -5.344106|   -3.147068|    0.000000|    0.000000|
|         527|   -5.339706|   -3.142906|    0.000000|    0.000000|
|         528|   -5.335300|   -3.138736|    0.000000|    0.000000|
|         529|   -5.330884|   -3.134557|    0.000000|    0.000000|
|         530|   -5.326454|   -3.130362|    0.000000|    0.000000|
|         531|   -5.322011|   -3.126149|    0.000000|    0.000000|
|         532|   -5.317555|   -3.121922|    0.000000|    0.000000|
|         533|   -5.313084|   -3.117676|    0.000000|    0.000000|
|         534|   -5.308594|   -3.113407|    0.000000|    0.000000|
|         535|   -5.304083|   -3.109114|    0.000000|    0.000000|
|         536|   -5.299550|   -3.104797|    0.000000|    0.000000|
|         537|   -5.295002|   -3.100461|    0.000000|    0.000000|
|         538|   -5.290448|   -3.096116|    0.000000|    0.000000|
|         539|   -5.285888|   -3.091761|    0.000000|    0.000000|
|         540|   -5.281322|   -3.087397|    0.000000|    0.000000|
|         541|   -5.276751|   -3.083025|    0.000000|    0.000000|
|         542|   -5.272171|   -3.078645|    0.000000|    0.000000|
|         543|   -5.267585|   -3.074254|    0.000000|    0.000000|
|         544|   -5.263001|   -3.069857|    0.000000|    0.000000|
|         545|   -5.258410|   -3.065453|    0.000000|    0.000000|
|         546|   -5.253809|   -3.061038|    0.000000|    0.000000|
|         547|   -5.249196|   -3.056611|    0.000000|    0.000000|
|         548|   -5.244575|   -3.052172|    0.000000|    0.000000|
|         549|   -5.239944|   -3.047717|    0.000000|    0.000000|
|         550|   -5.235308|   -3.043246|    0.000000|    0.000000|
|         551|   -5.230670|   -3.038769|    0.000000|    0.000000|
|         552|   -5.226027|   -3.034286|    0.000000|    0.000000|
|         553|   -5.221382|   -3.029798|    0.000000|    0.000000|
|         554|   -5.216733|   -3.025304|    0.000000|    0.000000|
|         555|   -5.212079|   -3.020804|    0.000000|    0.000000|
|         556|   -5.207419|   -3.016297|    0.000000|    0.000000|
|         557|   -5.202754|   -3.011783|    0.000000|    0.000000|
|         558|   -5.198082|   -3.007257|    0.000000|    0.000000|
|         559|   -5.193398|   -3.002717|    0.000000|    0.000000|
|         560|   -5.188702|   -2.998165|    0.000000|    0.000000|
|         561|   -5.183998|   -2.993602|    0.000000|    0.000000|
|         562|   -5.179288|   -2.989028|    0.000000|    0.000000|
|         563|   -5.174571|   -2.984443|    0.000000|    0.000000|
|         564|   -5.169848|   -2.979849|    0.000000|    0.000000|
|         565|   -5.165121|   -2.975249|    0.000000|    0.000000|
|         566|   -5.160393|   -2.970642|    0.000000|    0.000000|
|         567|   -5.155664|   -2.966032|    0.000000|    0.000000|
|         568|   -5.150933|   -2.961416|    0.000000|    0.000000|
|         569|   -5.146199|   -2.956794|    0.000000|    0.000000|
|         570|   -5.141462|   -2.952166|    0.000000|    0.000000|
|         571|   -5.136722|   -2.947532|    0.000000|    0.000000|
|         572|   -5.131978|   -2.942892|    0.000000|    0.000000|
|         573|   -5.127232|   -2.938245|    0.000000|    0.000000|
|         574|   -5.122484|   -2.933592|    0.000000|    0.000000|
|         575|   -5.117734|   -2.928932|    0.000000|    0.000000|
|         576|   -5.112981|   -2.924265|    0.000000|    0.000000|
|         577|   -5.108228|   -2.919593|    0.000000|    0.000000|
|         578|   -5.103475|   -2.914917|    0.000000|    0.000000|
|         579|   -5.098724|   -2.910239|    0.000000|    0.000000|
|         580|   -5.093976|   -2.905558|    0.000000|    0.000000|
|         581|   -5.089229|   -2.900875|    0.000000|    0.000000|
|         582|   -5.084483|   -2.896189|    0.000000|    0.000000|
|         583|   -5.079739|   -2.891500|    0.000000|    0.000000|
|         584|   -5.074996|   -2.886809|    0.000000|    0.000000|
|         585|   -5.070254|   -2.882114|    0.000000|    0.000000|
|         586|   -5.065512|   -2.877414|    0.000000|    0.000000|
|         587|   -5.060768|   -2.872708|    0.000000|    0.000000|
|         588|   -5.056025|   -2.867998|    0.000000|    0.000000|
|         589|   -5.051286|   -2.863287|    0.000000|    0.000000|
|         590|   -5.046551|   -2.858575|    0.000000|    0.000000|
|         591|   -5.041821|   -2.853862|    0.000000|    0.000000|
|         592|   -5.037095|   -2.849146|    0.000000|    0.000000|
|         593|   -5.032374|   -2.844431|    0.000000|    0.000000|
|         594|   -5.027659|   -2.839716|    0.000000|    0.000000|
|         595|   -5.022949|   -2.835004|    0.000000|    0.000000|
|         596|   -5.018246|   -2.830293|    0.000000|    0.000000|
|         597|   -5.013550|   -2.825583|    0.000000|    0.000000|
|         598|   -5.008862|   -2.820868|    0.000000|    0.000000|
|         599|   -5.004184|   -2.816154|    0.000000|    0.000000|
|         600|   -4.999513|   -2.811443|    0.000000|    0.000000|
|         601|   -4.994853|   -2.806738|    0.000000|    0.000000|
|         602|   -4.990204|   -2.802038|    0.000000|    0.000000|
|         603|   -4.985567|   -2.797343|    0.000000|    0.000000|
|         604|   -4.980943|   -2.792654|    0.000000|    0.000000|
|         605|   -4.976330|   -2.787970|    0.000000|    0.000000|
|         606|   -4.971729|   -2.783291|    0.000000|    0.000000|
|         607|   -4.967136|   -2.778612|    0.000000|    0.000000|
|         608|   -4.962547|   -2.773932|    0.000000|    0.000000|
|         609|   -4.957964|   -2.769253|    0.000000|    0.000000|
|         610|   -4.953389|   -2.764578|    0.000000|    0.000000|
|         611|   -4.948827|   -2.759908|    0.000000|    0.000000|
|         612|   -4.944279|   -2.755247|    0.000000|    0.000000|
|         613|   -4.939750|   -2.750597|    0.000000|    0.000000|
|         614|   -4.935240|   -2.745956|    0.000000|    0.000000|
|         615|   -4.930747|   -2.741323|    0.000000|    0.000000|
|         616|   -4.926274|   -2.736701|    0.000000|    0.000000|
|         617|   -4.921819|   -2.732089|    0.000000|    0.000000|
|         618|   -4.917385|   -2.727489|    0.000000|    0.000000|
|         619|   -4.912970|   -2.722902|    0.000000|    0.000000|
|         620|   -4.908576|   -2.718327|    0.000000|    0.000000|
|         621|   -4.904203|   -2.713766|    0.000000|    0.000000|
|         622|   -4.899852|   -2.709217|    0.000000|    0.000000|
|         623|   -4.895524|   -2.704680|    0.000000|    0.000000|
|         624|   -4.891216|   -2.700154|    0.000000|    0.000000|
|         625|   -4.886927|   -2.695638|    0.000000|    0.000000|
|         626|   -4.882660|   -2.691134|    0.000000|    0.000000|
|         627|   -4.878417|   -2.686644|    0.000000|    0.000000|
|         628|   -4.874199|   -2.682171|    0.000000|    0.000000|
|         629|   -4.870007|   -2.677713|    0.000000|    0.000000|
|         630|   -4.865843|   -2.673273|    0.000000|    0.000000|
|         631|   -4.861707|   -2.668850|    0.000000|    0.000000|
|         632|   -4.857600|   -2.664445|    0.000000|    0.000000|
|         633|   -4.853522|   -2.660060|    0.000000|    0.000000|
|         634|   -4.849476|   -2.655695|    0.000000|    0.000000|
|         635|   -4.845463|   -2.651352|    0.000000|    0.000000|
|         636|   -4.841482|   -2.647029|    0.000000|    0.000000|
|         637|   -4.837535|   -2.642725|    0.000000|    0.000000|
|         638|   -4.833620|   -2.638443|    0.000000|    0.000000|
|         639|   -4.829741|   -2.634184|    0.000000|    0.000000|
|         640|   -4.825899|   -2.629947|    0.000000|    0.000000|
|         641|   -4.822091|   -2.625731|    0.000000|    0.000000|
|         642|   -4.818319|   -2.621539|    0.000000|    0.000000|
|         643|   -4.814585|   -2.617372|    0.000000|    0.000000|
|         644|   -4.810891|   -2.613231|    0.000000|    0.000000|
|         645|   -4.807239|   -2.609117|    0.000000|    0.000000|
|         646|   -4.803628|   -2.605031|    0.000000|    0.000000|
|         647|   -4.800061|   -2.600973|    0.000000|    0.000000|
|         648|   -4.796538|   -2.596944|    0.000000|    0.000000|
|         649|   -4.793059|   -2.592943|    0.000000|    0.000000|
|         650|   -4.789624|   -2.588972|    0.000000|    0.000000|
|         651|   -4.786237|   -2.585034|    0.000000|    0.000000|
|         652|   -4.782897|   -2.581127|    0.000000|    0.000000|
|         653|   -4.779608|   -2.577254|    0.000000|    0.000000|
|         654|   -4.776368|   -2.573412|    0.000000|    0.000000|
|         655|   -4.773177|   -2.569601|    0.000000|    0.000000|
|         656|   -4.770036|   -2.565821|    0.000000|    0.000000|
|         657|   -4.766944|   -2.562071|    0.000000|    0.000000|
|         658|   -4.763908|   -2.558353|    0.000000|    0.000000|
|         659|   -4.760926|   -2.554670|    0.000000|    0.000000|
|         660|   -4.757999|   -2.551024|    0.000000|    0.000000|
|         661|   -4.755127|   -2.547416|    0.000000|    0.000000|
|         662|   -4.752311|   -2.543846|    0.000000|    0.000000|
|         663|   -4.749553|   -2.540313|    0.000000|    0.000000|
|         664|   -4.746850|   -2.536814|    0.000000|    0.000000|
|         665|   -4.744201|   -2.533351|    0.000000|    0.000000|
|         666|   -4.741609|   -2.529927|    0.000000|    0.000000|
|         667|   -4.739080|   -2.526543|    0.000000|    0.000000|
|         668|   -4.736614|   -2.523198|    0.000000|    0.000000|
|         669|   -4.734213|   -2.519895|    0.000000|    0.000000|
|         670|   -4.731879|   -2.516635|    0.000000|    0.000000|
|         671|   -4.729605|   -2.513414|    0.000000|    0.000000|
|         672|   -4.727388|   -2.510231|    0.000000|    0.000000|
|         673|   -4.725233|   -2.507087|    0.000000|    0.000000|
|         674|   -4.723145|   -2.503985|    0.000000|    0.000000|
|         675|   -4.721127|   -2.500927|    0.000000|    0.000000|
|         676|   -4.719185|   -2.497912|    0.000000|    0.000000|
|         677|   -4.717315|   -2.494943|    0.000000|    0.000000|
|         678|   -4.715518|   -2.492019|    0.000000|    0.000000|
|         679|   -4.713796|   -2.489141|    0.000000|    0.000000|
|         680|   -4.712150|   -2.486311|    0.000000|    0.000000|
|         681|   -4.710580|   -2.483528|    0.000000|    0.000000|
|         682|   -4.709090|   -2.480792|    0.000000|    0.000000|
|         683|   -4.707679|   -2.478104|    0.000000|    0.000000|
|         684|   -4.706349|   -2.475464|    0.000000|    0.000000|
|         685|   -4.705099|   -2.472874|    0.000000|    0.000000|
|         686|   -4.703934|   -2.470336|    0.000000|    0.000000|
|         687|   -4.702853|   -2.467848|    0.000000|    0.000000|
|         688|   -4.701859|   -2.465412|    0.000000|    0.000000|
|         689|   -4.700952|   -2.463028|    0.000000|    0.000000|
|         690|   -4.700134|   -2.460696|    0.000000|    0.000000|
|         691|   -4.699406|   -2.458417|    0.000000|    0.000000|
|         692|   -4.698769|   -2.456191|    0.000000|    0.000000|
|         693|   -4.698226|   -2.454019|    0.000000|    0.000000|
|         694|   -4.697776|   -2.451902|    0.000000|    0.000000|
|         695|   -4.697422|   -2.449839|    0.000000|    0.000000|
|         696|   -4.697165|   -2.447832|    0.000000|    0.000000|
|         697|   -4.697008|   -2.445879|    0.000000|    0.000000|
|         698|   -4.696952|   -2.443981|    0.000000|    0.000000|
|         699|   -4.696996|   -2.442140|    0.000000|    0.000000|
|         700|   -4.697141|   -2.440356|    0.000000|    0.000000|
|         701|   -4.697390|   -2.438629|    0.000000|    0.000000|
|         702|   -4.697746|   -2.436959|    0.000000|    0.000000|
|         703|   -4.698209|   -2.435347|    0.000000|    0.000000|
|         704|   -4.698781|   -2.433793|    0.000000|    0.000000|
|         705|   -4.699464|   -2.432297|    0.000000|    0.000000|
|         706|   -4.700260|   -2.430860|    0.000000|    0.000000|
|         707|   -4.701171|   -2.429483|    0.000000|    0.000000|
|         708|   -4.702201|   -2.428164|    0.000000|    0.000000|
|         709|   -4.703348|   -2.426904|    0.000000|    0.000000|
|         710|   -4.704614|   -2.425704|    0.000000|    0.000000|
|         711|   -4.706000|   -2.424561|    0.000000|    0.000000|
|         712|   -4.707508|   -2.423479|    0.000000|    0.000000|
|         713|   -4.709141|   -2.422456|    0.000000|    0.000000|
|         714|   -4.710902|   -2.421494|    0.000000|    0.000000|
|         715|   -4.712792|   -2.420594|    0.000000|    0.000000|
|         716|   -4.714815|   -2.419756|    0.000000|    0.000000|
|         717|   -4.716974|   -2.418981|    0.000000|    0.000000|
|         718|   -4.719270|   -2.418267|    0.000000|    0.000000|
|         719|   -4.721706|   -2.417616|    0.000000|    0.000000|
|         720|   -4.724284|   -2.417026|    0.000000|    0.000000|
|         721|   -4.727006|   -2.416499|    0.000000|    0.000000|
|         722|   -4.729874|   -2.416035|    0.000000|    0.000000|
|         723|   -4.732891|   -2.415634|    0.000000|    0.000000|
|         724|   -4.736059|   -2.415296|    0.000000|    0.000000|
|         725|   -4.739379|   -2.415020|    0.000000|    0.000000|
|         726|   -4.742845|   -2.414804|    0.000000|    0.000000|
|         727|   -4.746454|   -2.414645|    0.000000|    0.000000|
|         728|   -4.750217|   -2.414546|    0.000000|    0.000000|
|         729|   -4.754147|   -2.414508|    0.000000|    0.000000|
|         730|   -4.758237|   -2.414534|    0.000000|    0.000000|
|         731|   -4.762489|   -2.414621|    0.000000|    0.000000|
|         732|   -4.766908|   -2.414769|    0.000000|    0.000000|
|         733|   -4.771494|   -2.414980|    0.000000|    0.000000|
|         734|   -4.776252|   -2.415253|    0.000000|    0.000000|
|         735|   -4.781187|   -2.415590|    0.000000|    0.000000|
|         736|   -4.786296|   -2.415990|    0.000000|    0.000000|
|         737|   -4.791580|   -2.416453|    0.000000|    0.000000|
|         738|   -4.797042|   -2.416977|    0.000000|    0.000000|
|         739|   -4.802684|   -2.417562|    0.000000|    0.000000|
|         740|   -4.808507|   -2.418208|    0.000000|    0.000000|
|         741|   -4.814510|   -2.418913|    0.000000|    0.000000|
|         742|   -4.820694|   -2.419677|    0.000000|    0.000000|
|         743|   -4.827059|   -2.420501|    0.000000|    0.000000|
|         744|   -4.833608|   -2.421387|    0.000000|    0.000000|
|         745|   -4.840341|   -2.422333|    0.000000|    0.000000|
|         746|   -4.847258|   -2.423339|    0.000000|    0.000000|
|         747|   -4.854357|   -2.424405|    0.000000|    0.000000|
|         748|   -4.861636|   -2.425531|    0.000000|    0.000000|
|         749|   -4.869095|   -2.426716|    0.000000|    0.000000|
|         750|   -4.876730|   -2.427958|    0.000000|    0.000000|
|         751|   -4.884534|   -2.429258|    0.000000|    0.000000|
|         752|   -4.892503|   -2.430614|    0.000000|    0.000000|
|         753|   -4.900628|   -2.432023|    0.000000|    0.000000|
|         754|   -4.908904|   -2.433484|    0.000000|    0.000000|
|         755|   -4.917326|   -2.434997|    0.000000|    0.000000|
|         756|   -4.925882|   -2.436561|    0.000000|    0.000000|
|         757|   -4.934560|   -2.438176|    0.000000|    0.000000|
|         758|   -4.943345|   -2.439843|    0.000000|    0.000000|
|         759|   -4.952223|   -2.441560|    0.000000|    0.000000|
|         760|   -4.961176|   -2.443329|    0.000000|    0.000000|
|         761|   -4.970189|   -2.445145|    0.000000|    0.000000|
|         762|   -4.979235|   -2.447008|    0.000000|    0.000000|
|         763|   -4.988283|   -2.448917|    0.000000|    0.000000|
|         764|   -4.997301|   -2.450870|    0.000000|    0.000000|
|         765|   -5.006262|   -2.452867|    0.000000|    0.000000|
|         766|   -5.015136|   -2.454907|    0.000000|    0.000000|
|         767|   -5.023881|   -2.456987|    0.000000|    0.000000|
|         768|   -5.032459|   -2.459105|    0.000000|    0.000000|
|         769|   -5.040824|   -2.461258|    0.000000|    0.000000|
|         770|   -5.048925|   -2.463446|    0.000000|    0.000000|
|         771|   -5.056712|   -2.465670|    0.000000|    0.000000|
|         772|   -5.064134|   -2.467922|    0.000000|    0.000000|
|         773|   -5.071141|   -2.470197|    0.000000|    0.000000|
|         774|   -5.077711|   -2.472498|    0.000000|    0.000000|
|         775|   -5.083769|   -2.474826|    0.000000|    0.000000|
|         776|   -5.089254|   -2.477174|    0.000000|    0.000000|
|         777|   -5.094128|   -2.479540|    0.000000|    0.000000|
|         778|   -5.098356|   -2.481919|    0.000000|    0.000000|
|         779|   -5.101905|   -2.484307|    0.000000|    0.000000|
|         780|   -5.104745|   -2.486699|    0.000000|    0.000000|
|         781|   -5.106855|   -2.489094|    0.000000|    0.000000|
|         782|   -5.108226|   -2.491491|    0.000000|    0.000000|
|         783|   -5.108860|   -2.493881|    0.000000|    0.000000|
|         784|   -5.108765|   -2.496260|    0.000000|    0.000000|
|         785|   -5.107955|   -2.498624|    0.000000|    0.000000|
|         786|   -5.106449|   -2.500967|    0.000000|    0.000000|
|         787|   -5.104276|   -2.503280|    0.000000|    0.000000|
|         788|   -5.101470|   -2.505559|    0.000000|    0.000000|
|         789|   -5.098077|   -2.507799|    0.000000|    0.000000|
|         790|   -5.094140|   -2.509999|    0.000000|    0.000000|
|         791|   -5.089699|   -2.512154|    0.000000|    0.000000|
|         792|   -5.084805|   -2.514256|    0.000000|    0.000000|
|         793|   -5.079505|   -2.516300|    0.000000|    0.000000|
|         794|   -5.073845|   -2.518278|    0.000000|    0.000000|
|         795|   -5.067872|   -2.520183|    0.000000|    0.000000|
|         796|   -5.061628|   -2.522004|    0.000000|    0.000000|
|         797|   -5.055154|   -2.523745|    0.000000|    0.000000|
|         798|   -5.048487|   -2.525400|    0.000000|    0.000000|
|         799|   -5.041662|   -2.526962|    0.000000|    0.000000|
|         800|   -5.034712|   -2.528424|    0.000000|    0.000000|
|         801|   -5.027669|   -2.529779|    0.000000|    0.000000|
|         802|   -5.020556|   -2.531022|    0.000000|    0.000000|
|         803|   -5.013395|   -2.532149|    0.000000|    0.000000|
|         804|   -5.006202|   -2.533149|    0.000000|    0.000000|
|         805|   -4.998989|   -2.534018|    0.000000|    0.000000|
|         806|   -4.991777|   -2.534748|    0.000000|    0.000000|
|         807|   -4.984587|   -2.535337|    0.000000|    0.000000|
|         808|   -4.977425|   -2.535781|    0.000000|    0.000000|
|         809|   -4.970297|   -2.536077|    0.000000|    0.000000|
|         810|   -4.963209|   -2.536214|    0.000000|    0.000000|
|         811|   -4.956163|   -2.536190|    0.000000|    0.000000|
|         812|   -4.949164|   -2.536000|    0.000000|    0.000000|
|         813|   -4.942219|   -2.535644|    0.000000|    0.000000|
|         814|   -4.935332|   -2.535118|    0.000000|    0.000000|
|         815|   -4.928505|   -2.534421|    0.000000|    0.000000|
|         816|   -4.921739|   -2.533551|    0.000000|    0.000000|
|         817|   -4.915034|   -2.532507|    0.000000|    0.000000|
|         818|   -4.908390|   -2.531289|    0.000000|    0.000000|
|         819|   -4.901811|   -2.529899|    0.000000|    0.000000|
|         820|   -4.895295|   -2.528338|    0.000000|    0.000000|
|         821|   -4.888840|   -2.526607|    0.000000|    0.000000|
|         822|   -4.882446|   -2.524706|    0.000000|    0.000000|
|         823|   -4.876113|   -2.522631|    0.000000|    0.000000|
|         824|   -4.869838|   -2.520384|    0.000000|    0.000000|
|         825|   -4.863621|   -2.517980|    0.000000|    0.000000|
|         826|   -4.857464|   -2.515427|    0.000000|    0.000000|
|         827|   -4.851370|   -2.512729|    0.000000|    0.000000|
|         828|   -4.845339|   -2.509889|    0.000000|    0.000000|
|         829|   -4.839368|   -2.506915|    0.000000|    0.000000|
|         830|   -4.833458|   -2.503809|    0.000000|    0.000000|
|         831|   -4.827606|   -2.500581|    0.000000|    0.000000|
|         832|   -4.821815|   -2.497234|    0.000000|    0.000000|
|         833|   -4.816083|   -2.493776|    0.000000|    0.000000|
|         834|   -4.810411|   -2.490214|    0.000000|    0.000000|
|         835|   -4.804798|   -2.486556|    0.000000|    0.000000|
|         836|   -4.799241|   -2.482808|    0.000000|    0.000000|
|         837|   -4.793741|   -2.478977|    0.000000|    0.000000|
|         838|   -4.788297|   -2.475068|    0.000000|    0.000000|
|         839|   -4.782909|   -2.471089|    0.000000|    0.000000|
|         840|   -4.777576|   -2.467046|    0.000000|    0.000000|
|         841|   -4.772299|   -2.462948|    0.000000|    0.000000|
|         842|   -4.767079|   -2.458803|    0.000000|    0.000000|
|         843|   -4.761917|   -2.454613|    0.000000|    0.000000|
|         844|   -4.756813|   -2.450391|    0.000000|    0.000000|
|         845|   -4.751769|   -2.446145|    0.000000|    0.000000|
|         846|   -4.746789|   -2.441878|    0.000000|    0.000000|
|         847|   -4.741872|   -2.437592|    0.000000|    0.000000|
|         848|   -4.737015|   -2.433294|    0.000000|    0.000000|
|         849|   -4.732217|   -2.428986|    0.000000|    0.000000|
|         850|   -4.727478|   -2.424676|    0.000000|    0.000000|
|         851|   -4.722797|   -2.420366|    0.000000|    0.000000|
|         852|   -4.718174|   -2.416063|    0.000000|    0.000000|
|         853|   -4.713609|   -2.411771|    0.000000|    0.000000|
|         854|   -4.709102|   -2.407493|    0.000000|    0.000000|
|         855|   -4.704652|   -2.403233|    0.000000|    0.000000|
|         856|   -4.700260|   -2.398994|    0.000000|    0.000000|
|         857|   -4.695927|   -2.394781|    0.000000|    0.000000|
|         858|   -4.691652|   -2.390597|    0.000000|    0.000000|
|         859|   -4.687436|   -2.386446|    0.000000|    0.000000|
|         860|   -4.683278|   -2.382330|    0.000000|    0.000000|
|         861|   -4.679179|   -2.378259|    0.000000|    0.000000|
|         862|   -4.675138|   -2.374239|    0.000000|    0.000000|
|         863|   -4.671156|   -2.370261|    0.000000|    0.000000|
|         864|   -4.667234|   -2.366329|    0.000000|    0.000000|
|         865|   -4.663372|   -2.362446|    0.000000|    0.000000|
|         866|   -4.659570|   -2.358614|    0.000000|    0.000000|
|         867|   -4.655827|   -2.354831|    0.000000|    0.000000|
|         868|   -4.652145|   -2.351106|    0.000000|    0.000000|
|         869|   -4.648554|   -2.347443|    0.000000|    0.000000|
|         870|   -4.645029|   -2.343830|    0.000000|    0.000000|
|         871|   -4.641559|   -2.340267|    0.000000|    0.000000|
|         872|   -4.638149|   -2.336768|    0.000000|    0.000000|
|         873|   -4.634798|   -2.333336|    0.000000|    0.000000|
|         874|   -4.631510|   -2.329976|    0.000000|    0.000000|
|         875|   -4.628291|   -2.326687|    0.000000|    0.000000|
|         876|   -4.625141|   -2.323472|    0.000000|    0.000000|
|         877|   -4.622059|   -2.320330|    0.000000|    0.000000|
|         878|   -4.619044|   -2.317262|    0.000000|    0.000000|
|         879|   -4.616098|   -2.314271|    0.000000|    0.000000|
|         880|   -4.613220|   -2.311356|    0.000000|    0.000000|
|         881|   -4.610414|   -2.308521|    0.000000|    0.000000|
|         882|   -4.607680|   -2.305767|    0.000000|    0.000000|
|         883|   -4.605019|   -2.303093|    0.000000|    0.000000|
|         884|   -4.602432|   -2.300502|    0.000000|    0.000000|
|         885|   -4.599920|   -2.297993|    0.000000|    0.000000|
|         886|   -4.597484|   -2.295575|    0.000000|    0.000000|
|         887|   -4.595137|   -2.293246|    0.000000|    0.000000|
|         888|   -4.592878|   -2.291005|    0.000000|    0.000000|
|         889|   -4.590704|   -2.288853|    0.000000|    0.000000|
|         890|   -4.588614|   -2.286792|    0.000000|    0.000000|
|         891|   -4.586610|   -2.284821|    0.000000|    0.000000|
|         892|   -4.584693|   -2.282943|    0.000000|    0.000000|
|         893|   -4.582867|   -2.281157|    0.000000|    0.000000|
|         894|   -4.581133|   -2.279466|    0.000000|    0.000000|
|         895|   -4.579491|   -2.277880|    0.000000|    0.000000|
|         896|   -4.577941|   -2.276392|    0.000000|    0.000000|
|         897|   -4.576488|   -2.274993|    0.000000|    0.000000|
|         898|   -4.575132|   -2.273692|    0.000000|    0.000000|
|         899|   -4.573872|   -2.272489|    0.000000|    0.000000|
|         900|   -4.572709|   -2.271384|    0.000000|    0.000000|
|         901|   -4.571645|   -2.270363|    0.000000|    0.000000|
|         902|   -4.570680|   -2.269435|    0.000000|    0.000000|
|         903|   -4.569813|   -2.268608|    0.000000|    0.000000|
|         904|   -4.569054|   -2.267883|    0.000000|    0.000000|
|         905|   -4.568423|   -2.267266|    0.000000|    0.000000|
|         906|   -4.567930|   -2.266756|    0.000000|    0.000000|
|         907|   -4.567543|   -2.266353|    0.000000|    0.000000|
|         908|   -4.567259|   -2.266054|    0.000000|    0.000000|
|         909|   -4.567080|   -2.265859|    0.000000|    0.000000|
|         910|   -4.567013|   -2.265766|    0.000000|    0.000000|
|         911|   -4.567058|   -2.265775|    0.000000|    0.000000|
|         912|   -4.567216|   -2.265885|    0.000000|    0.000000|
|         913|   -4.567487|   -2.266105|    0.000000|    0.000000|
|         914|   -4.567890|   -2.266429|    0.000000|    0.000000|
|         915|   -4.568415|   -2.266854|    0.000000|    0.000000|
|         916|   -4.569061|   -2.267379|    0.000000|    0.000000|
|         917|   -4.569828|   -2.268003|    0.000000|    0.000000|
|         918|   -4.570718|   -2.268726|    0.000000|    0.000000|
|         919|   -4.571732|   -2.269547|    0.000000|    0.000000|
|         920|   -4.572869|   -2.270468|    0.000000|    0.000000|
|         921|   -4.574128|   -2.271499|    0.000000|    0.000000|
|         922|   -4.575508|   -2.272624|    0.000000|    0.000000|
|         923|   -4.577011|   -2.273830|    0.000000|    0.000000|
|         924|   -4.578629|   -2.275127|    0.000000|    0.000000|
|         925|   -4.580359|   -2.276519|    0.000000|    0.000000|
|         926|   -4.582205|   -2.278001|    0.000000|    0.000000|
|         927|   -4.584173|   -2.279575|    0.000000|    0.000000|
|         928|   -4.586260|   -2.281237|    0.000000|    0.000000|
|         929|   -4.588464|   -2.282989|    0.000000|    0.000000|
|         930|   -4.590784|   -2.284828|    0.000000|    0.000000|
|         931|   -4.593220|   -2.286757|    0.000000|    0.000000|
|         932|   -4.595782|   -2.288771|    0.000000|    0.000000|
|         933|   -4.598469|   -2.290865|    0.000000|    0.000000|
|         934|   -4.601270|   -2.293036|    0.000000|    0.000000|
|         935|   -4.604179|   -2.295282|    0.000000|    0.000000|
|         936|   -4.607196|   -2.297600|    0.000000|    0.000000|
|         937|   -4.610318|   -2.299995|    0.000000|    0.000000|
|         938|   -4.613547|   -2.302463|    0.000000|    0.000000|
|         939|   -4.616884|   -2.304982|    0.000000|    0.000000|
|         940|   -4.620302|   -2.307559|    0.000000|    0.000000|
|         941|   -4.623799|   -2.310208|    0.000000|    0.000000|
|         942|   -4.627382|   -2.312927|    0.000000|    0.000000|
|         943|   -4.631052|   -2.315703|    0.000000|    0.000000|
|         944|   -4.634805|   -2.318539|    0.000000|    0.000000|
|         945|   -4.638649|   -2.321430|    0.000000|    0.000000|
|         946|   -4.642572|   -2.324373|    0.000000|    0.000000|
|         947|   -4.646562|   -2.327364|    0.000000|    0.000000|
|         948|   -4.650614|   -2.330400|    0.000000|    0.000000|
|         949|   -4.654722|   -2.333471|    0.000000|    0.000000|
|         950|   -4.658872|   -2.336578|    0.000000|    0.000000|
|         951|   -4.663044|   -2.339704|    0.000000|    0.000000|
|         952|   -4.667229|   -2.342865|    0.000000|    0.000000|
|         953|   -4.671448|   -2.346054|    0.000000|    0.000000|
|         954|   -4.675696|   -2.349265|    0.000000|    0.000000|
|         955|   -4.679951|   -2.352476|    0.000000|    0.000000|
|         956|   -4.684159|   -2.355717|    0.000000|    0.000000|
|         957|   -4.688351|   -2.358991|    0.000000|    0.000000|
|         958|   -4.692533|   -2.362270|    0.000000|    0.000000|
|         959|   -4.696670|   -2.365555|    0.000000|    0.000000|
|         960|   -4.700748|   -2.368846|    0.000000|    0.000000|
|         961|   -4.704780|   -2.372130|    0.000000|    0.000000|
|         962|   -4.708768|   -2.375426|    0.000000|    0.000000|
|         963|   -4.712649|   -2.378742|    0.000000|    0.000000|
|         964|   -4.716437|   -2.382065|    0.000000|    0.000000|
|         965|   -4.720143|   -2.385392|    0.000000|    0.000000|
|         966|   -4.723765|   -2.388722|    0.000000|    0.000000|
|         967|   -4.727298|   -2.392056|    0.000000|    0.000000|
|         968|   -4.730733|   -2.395404|    0.000000|    0.000000|
|         969|   -4.734072|   -2.398751|    0.000000|    0.000000|
|         970|   -4.737302|   -2.402096|    0.000000|    0.000000|
|         971|   -4.740426|   -2.405435|    0.000000|    0.000000|
|         972|   -4.743441|   -2.408783|    0.000000|    0.000000|
|         973|   -4.746359|   -2.412139|    0.000000|    0.000000|
|         974|   -4.749187|   -2.415484|    0.000000|    0.000000|
|         975|   -4.751904|   -2.418819|    0.000000|    0.000000|
|         976|   -4.754503|   -2.422139|    0.000000|    0.000000|
|         977|   -4.756980|   -2.425443|    0.000000|    0.000000|
|         978|   -4.759333|   -2.428730|    0.000000|    0.000000|
|         979|   -4.761562|   -2.431998|    0.000000|    0.000000|
|         980|   -4.763670|   -2.435243|    0.000000|    0.000000|
|         981|   -4.765653|   -2.438469|    0.000000|    0.000000|
|         982|   -4.767506|   -2.441674|    0.000000|    0.000000|
|         983|   -4.769238|   -2.444858|    0.000000|    0.000000|
|         984|   -4.770856|   -2.448018|    0.000000|    0.000000|
|         985|   -4.772371|   -2.451153|    0.000000|    0.000000|
|         986|   -4.773785|   -2.454270|    0.000000|    0.000000|
|         987|   -4.775098|   -2.457367|    0.000000|    0.000000|
|         988|   -4.776324|   -2.460442|    0.000000|    0.000000|
|         989|   -4.777471|   -2.463495|    0.000000|    0.000000|
|         990|   -4.778545|   -2.466525|    0.000000|    0.000000|
|         991|   -4.779552|   -2.469528|    0.000000|    0.000000|
|         992|   -4.780494|   -2.472506|    0.000000|    0.000000|
|         993|   -4.781371|   -2.475463|    0.000000|    0.000000|
|         994|   -4.782196|   -2.478402|    0.000000|    0.000000|
|         995|   -4.782977|   -2.481328|    0.000000|    0.000000|
|         996|   -4.783719|   -2.484238|    0.000000|    0.000000|
|         997|   -4.784436|   -2.487132|    0.000000|    0.000000|
|         998|   -4.785131|   -2.490006|    0.000000|    0.000000|
|         999|   -4.785804|   -2.492866|    0.000000|    0.000000|
|        1000|   -4.786462|   -2.495714|    0.000000|    0.000000|
[...]
|       19726|   -5.040116|   -2.467988|    0.000000|    0.000000|
|       19727|   -5.047435|   -2.470132|    0.000000|    0.000000|
|       19728|   -5.054408|   -2.472300|    0.000000|    0.000000|
|       19729|   -5.060980|   -2.474488|    0.000000|    0.000000|
|       19730|   -5.067111|   -2.476695|    0.000000|    0.000000|
|       19731|   -5.072784|   -2.478920|    0.000000|    0.000000|
|       19732|   -5.077953|   -2.481157|    0.000000|    0.000000|
|       19733|   -5.082537|   -2.483410|    0.000000|    0.000000|
|       19734|   -5.086504|   -2.485672|    0.000000|    0.000000|
|       19735|   -5.089830|   -2.487940|    0.000000|    0.000000|
|       19736|   -5.092491|   -2.490206|    0.000000|    0.000000|
|       19737|   -5.094469|   -2.492466|    0.000000|    0.000000|
|       19738|   -5.095750|   -2.494718|    0.000000|    0.000000|
|       19739|   -5.096328|   -2.496957|    0.000000|    0.000000|
|       19740|   -5.096209|   -2.499178|    0.000000|    0.000000|
|       19741|   -5.095404|   -2.501374|    0.000000|    0.000000|
|       19742|   -5.093929|   -2.503541|    0.000000|    0.000000|
|       19743|   -5.091812|   -2.505675|    0.000000|    0.000000|
|       19744|   -5.089091|   -2.507771|    0.000000|    0.000000|
|       19745|   -5.085803|   -2.509824|    0.000000|    0.000000|
|       19746|   -5.081982|   -2.511830|    0.000000|    0.000000|
|       19747|   -5.077675|   -2.513783|    0.000000|    0.000000|
|       19748|   -5.072923|   -2.515679|    0.000000|    0.000000|
|       19749|   -5.067767|   -2.517510|    0.000000|    0.000000|
|       19750|   -5.062252|   -2.519272|    0.000000|    0.000000|
|       19751|   -5.056426|   -2.520955|    0.000000|    0.000000|
|       19752|   -5.050323|   -2.522558|    0.000000|    0.000000|
|       19753|   -5.043980|   -2.524073|    0.000000|    0.000000|
|       19754|   -5.037438|   -2.525495|    0.000000|    0.000000|
|       19755|   -5.030731|   -2.526816|    0.000000|    0.000000|
|       19756|   -5.023891|   -2.528032|    0.000000|    0.000000|
|       19757|   -5.016947|   -2.529136|    0.000000|    0.000000|
|       19758|   -5.009923|   -2.530122|    0.000000|    0.000000|
|       19759|   -5.002836|   -2.530986|    0.000000|    0.000000|
|       19760|   -4.995708|   -2.531722|    0.000000|    0.000000|
|       19761|   -4.988558|   -2.532323|    0.000000|    0.000000|
|       19762|   -4.981401|   -2.532785|    0.000000|    0.000000|
|       19763|   -4.974252|   -2.533109|    0.000000|    0.000000|
|       19764|   -4.967120|   -2.533286|    0.000000|    0.000000|
|       19765|   -4.960014|   -2.533310|    0.000000|    0.000000|
|       19766|   -4.952941|   -2.533178|    0.000000|    0.000000|
|       19767|   -4.945911|   -2.532888|    0.000000|    0.000000|
|       19768|   -4.938931|   -2.532439|    0.000000|    0.000000|
|       19769|   -4.932006|   -2.531829|    0.000000|    0.000000|
|       19770|   -4.925137|   -2.531055|    0.000000|    0.000000|
|       19771|   -4.918324|   -2.530116|    0.000000|    0.000000|
|       19772|   -4.911570|   -2.529010|    0.000000|    0.000000|
|       19773|   -4.904876|   -2.527722|    0.000000|    0.000000|
|       19774|   -4.898245|   -2.526269|    0.000000|    0.000000|
|       19775|   -4.891678|   -2.524655|    0.000000|    0.000000|
|       19776|   -4.885179|   -2.522879|    0.000000|    0.000000|
|       19777|   -4.878748|   -2.520946|    0.000000|    0.000000|
|       19778|   -4.872384|   -2.518856|    0.000000|    0.000000|
|       19779|   -4.866085|   -2.516613|    0.000000|    0.000000|
|       19780|   -4.859853|   -2.514221|    0.000000|    0.000000|
|       19781|   -4.853687|   -2.511684|    0.000000|    0.000000|
|       19782|   -4.847587|   -2.509007|    0.000000|    0.000000|
|       19783|   -4.841551|   -2.506193|    0.000000|    0.000000|
|       19784|   -4.835578|   -2.503249|    0.000000|    0.000000|
|       19785|   -4.829674|   -2.500181|    0.000000|    0.000000|
|       19786|   -4.823834|   -2.496994|    0.000000|    0.000000|
|       19787|   -4.818056|   -2.493692|    0.000000|    0.000000|
|       19788|   -4.812337|   -2.490282|    0.000000|    0.000000|
|       19789|   -4.806677|   -2.486776|    0.000000|    0.000000|
|       19790|   -4.801077|   -2.483175|    0.000000|    0.000000|
|       19791|   -4.795536|   -2.479486|    0.000000|    0.000000|
|       19792|   -4.790054|   -2.475715|    0.000000|    0.000000|
|       19793|   -4.784630|   -2.471867|    0.000000|    0.000000|
|       19794|   -4.779263|   -2.467953|    0.000000|    0.000000|
|       19795|   -4.773957|   -2.463987|    0.000000|    0.000000|
|       19796|   -4.768718|   -2.459966|    0.000000|    0.000000|
|       19797|   -4.763543|   -2.455898|    0.000000|    0.000000|
|       19798|   -4.758429|   -2.451787|    0.000000|    0.000000|
|       19799|   -4.753374|   -2.447641|    0.000000|    0.000000|
|       19800|   -4.748377|   -2.443463|    0.000000|    0.000000|
|       19801|   -4.743436|   -2.439259|    0.000000|    0.000000|
|       19802|   -4.738553|   -2.435035|    0.000000|    0.000000|
|       19803|   -4.733727|   -2.430796|    0.000000|    0.000000|
|       19804|   -4.728960|   -2.426546|    0.000000|    0.000000|
|       19805|   -4.724251|   -2.422293|    0.000000|    0.000000|
|       19806|   -4.719598|   -2.418039|    0.000000|    0.000000|
|       19807|   -4.715003|   -2.413790|    0.000000|    0.000000|
|       19808|   -4.710467|   -2.409551|    0.000000|    0.000000|
|       19809|   -4.705989|   -2.405326|    0.000000|    0.000000|
|       19810|   -4.701569|   -2.401119|    0.000000|    0.000000|
|       19811|   -4.697208|   -2.396936|    0.000000|    0.000000|
|       19812|   -4.692907|   -2.392792|    0.000000|    0.000000|
|       19813|   -4.688663|   -2.388673|    0.000000|    0.000000|
|       19814|   -4.684479|   -2.384587|    0.000000|    0.000000|
|       19815|   -4.680354|   -2.380537|    0.000000|    0.000000|
|       19816|   -4.676289|   -2.376527|    0.000000|    0.000000|
|       19817|   -4.672285|   -2.372556|    0.000000|    0.000000|
|       19818|   -4.668343|   -2.368630|    0.000000|    0.000000|
|       19819|   -4.664463|   -2.364752|    0.000000|    0.000000|
|       19820|   -4.660677|   -2.360928|    0.000000|    0.000000|
|       19821|   -4.656947|   -2.357139|    0.000000|    0.000000|
|       19822|   -4.653272|   -2.353394|    0.000000|    0.000000|
|       19823|   -4.649654|   -2.349713|    0.000000|    0.000000|
|       19824|   -4.646101|   -2.346093|    0.000000|    0.000000|
|       19825|   -4.642614|   -2.342537|    0.000000|    0.000000|
|       19826|   -4.639194|   -2.339047|    0.000000|    0.000000|
|       19827|   -4.635841|   -2.335628|    0.000000|    0.000000|
|       19828|   -4.632557|   -2.332278|    0.000000|    0.000000|
|       19829|   -4.629339|   -2.328997|    0.000000|    0.000000|
|       19830|   -4.626189|   -2.325786|    0.000000|    0.000000|
|       19831|   -4.623107|   -2.322648|    0.000000|    0.000000|
|       19832|   -4.620095|   -2.319586|    0.000000|    0.000000|
|       19833|   -4.617156|   -2.316599|    0.000000|    0.000000|
|       19834|   -4.614288|   -2.313689|    0.000000|    0.000000|
|       19835|   -4.611491|   -2.310857|    0.000000|    0.000000|
|       19836|   -4.608767|   -2.308104|    0.000000|    0.000000|
|       19837|   -4.606117|   -2.305439|    0.000000|    0.000000|
|       19838|   -4.603554|   -2.302859|    0.000000|    0.000000|
|       19839|   -4.601075|   -2.300363|    0.000000|    0.000000|
|       19840|   -4.598679|   -2.297954|    0.000000|    0.000000|
|       19841|   -4.596364|   -2.295631|    0.000000|    0.000000|
|       19842|   -4.594131|   -2.293397|    0.000000|    0.000000|
|       19843|   -4.591982|   -2.291252|    0.000000|    0.000000|
|       19844|   -4.589918|   -2.289197|    0.000000|    0.000000|
|       19845|   -4.587942|   -2.287234|    0.000000|    0.000000|
|       19846|   -4.586054|   -2.285372|    0.000000|    0.000000|
|       19847|   -4.584256|   -2.283606|    0.000000|    0.000000|
|       19848|   -4.582548|   -2.281926|    0.000000|    0.000000|
|       19849|   -4.580930|   -2.280342|    0.000000|    0.000000|
|       19850|   -4.579406|   -2.278853|    0.000000|    0.000000|
|       19851|   -4.577976|   -2.277460|    0.000000|    0.000000|
|       19852|   -4.576642|   -2.276155|    0.000000|    0.000000|
|       19853|   -4.575402|   -2.274937|    0.000000|    0.000000|
|       19854|   -4.574258|   -2.273819|    0.000000|    0.000000|
|       19855|   -4.573214|   -2.272802|    0.000000|    0.000000|
|       19856|   -4.572287|   -2.271890|    0.000000|    0.000000|
|       19857|   -4.571493|   -2.271083|    0.000000|    0.000000|
|       19858|   -4.570809|   -2.270382|    0.000000|    0.000000|
|       19859|   -4.570224|   -2.269786|    0.000000|    0.000000|
|       19860|   -4.569741|   -2.269293|    0.000000|    0.000000|
|       19861|   -4.569363|   -2.268902|    0.000000|    0.000000|
|       19862|   -4.569095|   -2.268614|    0.000000|    0.000000|
|       19863|   -4.568936|   -2.268426|    0.000000|    0.000000|
|       19864|   -4.568888|   -2.268346|    0.000000|    0.000000|
|       19865|   -4.568964|   -2.268373|    0.000000|    0.000000|
|       19866|   -4.569164|   -2.268502|    0.000000|    0.000000|
|       19867|   -4.569481|   -2.268733|    0.000000|    0.000000|
|       19868|   -4.569916|   -2.269066|    0.000000|    0.000000|
|       19869|   -4.570472|   -2.269499|    0.000000|    0.000000|
|       19870|   -4.571150|   -2.270032|    0.000000|    0.000000|
|       19871|   -4.571954|   -2.270666|    0.000000|    0.000000|
|       19872|   -4.572882|   -2.271410|    0.000000|    0.000000|
|       19873|   -4.573932|   -2.272257|    0.000000|    0.000000|
|       19874|   -4.575105|   -2.273194|    0.000000|    0.000000|
|       19875|   -4.576399|   -2.274218|    0.000000|    0.000000|
|       19876|   -4.577805|   -2.275340|    0.000000|    0.000000|
|       19877|   -4.579327|   -2.276557|    0.000000|    0.000000|
|       19878|   -4.580972|   -2.277870|    0.000000|    0.000000|
|       19879|   -4.582738|   -2.279276|    0.000000|    0.000000|
|       19880|   -4.584627|   -2.280775|    0.000000|    0.000000|
|       19881|   -4.586635|   -2.282367|    0.000000|    0.000000|
|       19882|   -4.588762|   -2.284051|    0.000000|    0.000000|
|       19883|   -4.591011|   -2.285829|    0.000000|    0.000000|
|       19884|   -4.593393|   -2.287696|    0.000000|    0.000000|
|       19885|   -4.595898|   -2.289643|    0.000000|    0.000000|
|       19886|   -4.598516|   -2.291672|    0.000000|    0.000000|
|       19887|   -4.601247|   -2.293780|    0.000000|    0.000000|
|       19888|   -4.604089|   -2.295965|    0.000000|    0.000000|
|       19889|   -4.607038|   -2.298224|    0.000000|    0.000000|
|       19890|   -4.610093|   -2.300563|    0.000000|    0.000000|
|       19891|   -4.613258|   -2.302956|    0.000000|    0.000000|
|       19892|   -4.616514|   -2.305420|    0.000000|    0.000000|
|       19893|   -4.619859|   -2.307966|    0.000000|    0.000000|
|       19894|   -4.623299|   -2.310577|    0.000000|    0.000000|
|       19895|   -4.626832|   -2.313251|    0.000000|    0.000000|
|       19896|   -4.630454|   -2.315990|    0.000000|    0.000000|
|       19897|   -4.634174|   -2.318787|    0.000000|    0.000000|
|       19898|   -4.637972|   -2.321640|    0.000000|    0.000000|
|       19899|   -4.641845|   -2.324544|    0.000000|    0.000000|
|       19900|   -4.645783|   -2.327496|    0.000000|    0.000000|
|       19901|   -4.649783|   -2.330497|    0.000000|    0.000000|
|       19902|   -4.653839|   -2.333533|    0.000000|    0.000000|
|       19903|   -4.657921|   -2.336602|    0.000000|    0.000000|
|       19904|   -4.662042|   -2.339706|    0.000000|    0.000000|
|       19905|   -4.666204|   -2.342845|    0.000000|    0.000000|
|       19906|   -4.670401|   -2.346015|    0.000000|    0.000000|
|       19907|   -4.674619|   -2.349184|    0.000000|    0.000000|
|       19908|   -4.678788|   -2.352384|    0.000000|    0.000000|
|       19909|   -4.682948|   -2.355627|    0.000000|    0.000000|
|       19910|   -4.687106|   -2.358857|    0.000000|    0.000000|
|       19911|   -4.691199|   -2.362105|    0.000000|    0.000000|
|       19912|   -4.695252|   -2.365363|    0.000000|    0.000000|
|       19913|   -4.699284|   -2.368623|    0.000000|    0.000000|
|       19914|   -4.703261|   -2.371898|    0.000000|    0.000000|
|       19915|   -4.707140|   -2.375189|    0.000000|    0.000000|
|       19916|   -4.710936|   -2.378494|    0.000000|    0.000000|
|       19917|   -4.714663|   -2.381812|    0.000000|    0.000000|
|       19918|   -4.718318|   -2.385135|    0.000000|    0.000000|
|       19919|   -4.721892|   -2.388466|    0.000000|    0.000000|
|       19920|   -4.725379|   -2.391811|    0.000000|    0.000000|
|       19921|   -4.728778|   -2.395158|    0.000000|    0.000000|
|       19922|   -4.732074|   -2.398505|    0.000000|    0.000000|
|       19923|   -4.735267|   -2.401849|    0.000000|    0.000000|
|       19924|   -4.738359|   -2.405203|    0.000000|    0.000000|
|       19925|   -4.741360|   -2.408569|    0.000000|    0.000000|
|       19926|   -4.744282|   -2.411928|    0.000000|    0.000000|
|       19927|   -4.747098|   -2.415278|    0.000000|    0.000000|
|       19928|   -4.749801|   -2.418618|    0.000000|    0.000000|
|       19929|   -4.752390|   -2.421946|    0.000000|    0.000000|
|       19930|   -4.754864|   -2.425261|    0.000000|    0.000000|
|       19931|   -4.757215|   -2.428556|    0.000000|    0.000000|
|       19932|   -4.759449|   -2.431833|    0.000000|    0.000000|
|       19933|   -4.761568|   -2.435092|    0.000000|    0.000000|
|       19934|   -4.763566|   -2.438333|    0.000000|    0.000000|
|       19935|   -4.765448|   -2.441556|    0.000000|    0.000000|
|       19936|   -4.767218|   -2.444758|    0.000000|    0.000000|
|       19937|   -4.768885|   -2.447941|    0.000000|    0.000000|
|       19938|   -4.770451|   -2.451105|    0.000000|    0.000000|
|       19939|   -4.771926|   -2.454254|    0.000000|    0.000000|
|       19940|   -4.773323|   -2.457383|    0.000000|    0.000000|
|       19941|   -4.774644|   -2.460490|    0.000000|    0.000000|
|       19942|   -4.775886|   -2.463576|    0.000000|    0.000000|
|       19943|   -4.777054|   -2.466644|    0.000000|    0.000000|
|       19944|   -4.778157|   -2.469685|    0.000000|    0.000000|
|       19945|   -4.779193|   -2.472704|    0.000000|    0.000000|
|       19946|   -4.780170|   -2.475706|    0.000000|    0.000000|
|       19947|   -4.781098|   -2.478692|    0.000000|    0.000000|
|       19948|   -4.781987|   -2.481664|    0.000000|    0.000000|
|       19949|   -4.782846|   -2.484622|    0.000000|    0.000000|
|       19950|   -4.783680|   -2.487561|    0.000000|    0.000000|
|       19951|   -4.784488|   -2.490490|    0.000000|    0.000000|
|       19952|   -4.785282|   -2.493409|    0.000000|    0.000000|
|       19953|   -4.786067|   -2.496321|    0.000000|    0.000000|
|       19954|   -4.786848|   -2.499225|    0.000000|    0.000000|
|       19955|   -4.787628|   -2.502124|    0.000000|    0.000000|
|       19956|   -4.788414|   -2.505017|    0.000000|    0.000000|
|       19957|   -4.789222|   -2.507907|    0.000000|    0.000000|
|       19958|   -4.790045|   -2.510798|    0.000000|    0.000000|
|       19959|   -4.790882|   -2.513693|    0.000000|    0.000000|
|       19960|   -4.791739|   -2.516587|    0.000000|    0.000000|
|       19961|   -4.792612|   -2.519480|    0.000000|    0.000000|
|       19962|   -4.793502|   -2.522372|    0.000000|    0.000000|
|       19963|   -4.794411|   -2.525265|    0.000000|    0.000000|
|       19964|   -4.795340|   -2.528157|    0.000000|    0.000000|
|       19965|   -4.796291|   -2.531049|    0.000000|    0.000000|
|       19966|   -4.797264|   -2.533941|    0.000000|    0.000000|
|       19967|   -4.798262|   -2.536834|    0.000000|    0.000000|
|       19968|   -4.799285|   -2.539727|    0.000000|    0.000000|
|       19969|   -4.800332|   -2.542618|    0.000000|    0.000000|
|       19970|   -4.801403|   -2.545511|    0.000000|    0.000000|
|       19971|   -4.802500|   -2.548406|    0.000000|    0.000000|
|       19972|   -4.803625|   -2.551300|    0.000000|    0.000000|
|       19973|   -4.804773|   -2.554193|    0.000000|    0.000000|
|       19974|   -4.805948|   -2.557085|    0.000000|    0.000000|
|       19975|   -4.807147|   -2.559978|    0.000000|    0.000000|
|       19976|   -4.808374|   -2.562870|    0.000000|    0.000000|
|       19977|   -4.809627|   -2.565763|    0.000000|    0.000000|
|       19978|   -4.810909|   -2.568657|    0.000000|    0.000000|
|       19979|   -4.812218|   -2.571550|    0.000000|    0.000000|
|       19980|   -4.813554|   -2.574444|    0.000000|    0.000000|
|       19981|   -4.814917|   -2.577337|    0.000000|    0.000000|
|       19982|   -4.816307|   -2.580230|    0.000000|    0.000000|
|       19983|   -4.817723|   -2.583122|    0.000000|    0.000000|
|       19984|   -4.819166|   -2.586014|    0.000000|    0.000000|
|       19985|   -4.820635|   -2.588903|    0.000000|    0.000000|
|       19986|   -4.822129|   -2.591793|    0.000000|    0.000000|
|       19987|   -4.823651|   -2.594682|    0.000000|    0.000000|
|       19988|   -4.825202|   -2.597571|    0.000000|    0.000000|
|       19989|   -4.826780|   -2.600459|    0.000000|    0.000000|
|       19990|   -4.828387|   -2.603347|    0.000000|    0.000000|
|       19991|   -4.830020|   -2.606235|    0.000000|    0.000000|
|       19992|   -4.831679|   -2.609123|    0.000000|    0.000000|
|       19993|   -4.833367|   -2.612013|    0.000000|    0.000000|
|       19994|   -4.835083|   -2.614904|    0.000000|    0.000000|
|       19995|   -4.836827|   -2.617796|    0.000000|    0.000000|
|       19996|   -4.838605|   -2.620690|    0.000000|    0.000000|
|       19997|   -4.840413|   -2.623587|    0.000000|    0.000000|
|       19998|   -4.842251|   -2.626488|    0.000000|    0.000000|
|       19999|   -4.844120|   -2.629391|    0.000000|    0.000000|

----------------------------- Solver Exit -------------------------------

Maximum number of iterations reached (ITER = 20000) before convergence.
+-----------------------------------------------------------------------+
|      Convergence Field     |     Value    |   Criterion  |  Converged |
+-----------------------------------------------------------------------+
|                      rms[P]|      -4.84412|         < -12|          No|
+-----------------------------------------------------------------------+
-------------------------------------------------------------------------
+-----------------------------------------------------------------------+
|        File Writing Summary       |              Filename             |
+-----------------------------------------------------------------------+
|Paraview                           |vol_solution.vtu                   |
|SU2 binary restart                 |restart_jet.dat                    |
+-----------------------------------------------------------------------+

--------------------------- Finalizing Solver ---------------------------
Deleted CNumerics container.
Deleted CIntegration container.
Deleted CSolver container.
Deleted CIteration container.
Deleted CInterface container.
Deleted CGeometry container.
Deleted CFreeFormDefBox class.
Deleted CSurfaceMovement class.
Deleted CVolumetricMovement class.
Deleted CConfig container.
Deleted nInst container.
Deleted COutput class.
-------------------------------------------------------------------------

------------------------- Exit Success (SU2_CFD) ------------------------

