
-------------------------------------------------------------------------
|    ___ _   _ ___                                                      |
|   / __| | | |_  )   Release 8.4.0 "Harrier"                           |
|   \__ \ |_| |/ /                                                      |
|   |___/\___//___|   Suite (Computational Fluid Dynamics Code)         |
|                                                                       |
-------------------------------------------------------------------------
| SU2 Project Website: https://su2code.github.io                        |
|                                                                       |
| The SU2 Project is maintained by the SU2 Foundation                   |
| (http://su2foundation.org)                                            |
-------------------------------------------------------------------------
| Copyright 2012-2026, SU2 Contributors                                 |
|                                                                       |
| SU2 is free software; you can redistribute it and/or                  |
| modify it under the terms of the GNU Lesser General Public            |
| License as published by the Free Software Foundation; either          |
| version 2.1 of the License, or (at your option) any later version.    |
|                                                                       |
| SU2 is distributed in the hope that it will be useful,                |
| but WITHOUT ANY WARRANTY; without even the implied warranty of        |
| MERCHANTABILITY or FITNESS FOR A PARTICULAR PURPOSE. See the GNU      |
| Lesser General Public License for more details.                       |
|                                                                       |
| You should have received a copy of the GNU Lesser General Public      |
| License along with SU2. If not, see <http://www.gnu.org/licenses/>.   |
-------------------------------------------------------------------------

Parsing config file for zone 0

----------------- Physical Case Definition ( Zone 0 ) -------------------
Incompressible RANS equations.
Turbulence model: Menter's k-omega SST-2003m with no production modification
using default hard coded lower limit clipping.
Hybrid RANS/LES: No Hybrid RANS/LES
No restart solution, use the values at infinity (freestream).
Dimensional simulation.
The reference area is 1 m^2.
The semi-span will be computed using the max y(3D) value.
The reference length is 1 m.
Input mesh file name: jet.su2

--------------- Space Numerical Integration ( Zone 0 ) ------------------
Flux difference splitting (FDS) upwind scheme for the flow inviscid terms.
Second order integration in space, with slope limiter.
No slope-limiting method. 
Average of gradients with correction (viscous flow terms).
Average of gradients with correction (viscous turbulence terms).
Gradient for upwind reconstruction: Green-Gauss.
Gradient for viscous and source terms: Green-Gauss.

--------------- Time Numerical Integration  ( Zone 0 ) ------------------
Local time stepping (steady state simulation).
Euler implicit method for the flow equations.
FGMRES is used for solving the linear system.
Using a ILU(0) preconditioning.
Convergence criteria of the linear solver: 1e-10.
Max number of linear iterations: 10.
CFL adaptation. Factor down: 0.1, factor up: 2,
                lower limit: 10, upper limit: 1000,
                acceptable linear residual: 0.001'
                starting iteration: 0.
Courant-Friedrichs-Lewy number:       25
Euler implicit time integration for the turbulence model.

------------------ Convergence Criteria  ( Zone 0 ) ---------------------
Maximum number of solver subiterations: 10000.
Begin convergence monitoring at iteration 10.
Residual minimum value: 1e-12.
Cauchy series min. value: 1e-10.
Number of Cauchy elements: 100.
Begin windowed time average at iteration 0.

-------------------- Output Information ( Zone 0 ) ----------------------
File writing frequency: 
+------------------------------------+
|                     File| Frequency|
+------------------------------------+
|                 PARAVIEW|       500|
|                  RESTART|       500|
+------------------------------------+
Writing the convergence history file every 1 inner iterations.
Writing the screen convergence history every 1 inner iterations.
The tabular file format is CSV (.csv).
Convergence history file name: history.
Forces breakdown file name: forces_breakdown.dat.
Surface file name: surface.
Volume file name: vol_solution.
Restart file name: restart_jet.

------------- Config File Boundary Information ( Zone 0 ) ---------------
+-----------------------------------------------------------------------+
|                        Marker Type|                        Marker Name|
+-----------------------------------------------------------------------+
|                          Far-field|                           farfield|
+-----------------------------------------------------------------------+
|                     Symmetry plane|                           symmetry|
+-----------------------------------------------------------------------+
|                     Inlet boundary|                              inlet|
|                                   |                       inlet_coflow|
+-----------------------------------------------------------------------+
|                    Outlet boundary|                             outlet|
|                                   |                      outlet_coflow|
+-----------------------------------------------------------------------+

-------------------- Output Preprocessing ( Zone 0 ) --------------------

WARNING: SURFACE_PRESSURE_DROP can only be computed for at least 2 surfaces (outlet, inlet, ...)

Screen output fields: INNER_ITER, RMS_PRESSURE, RMS_VELOCITY-X, LIFT, DRAG
History output group(s): ITER, RMS_RES
Convergence field(s): RMS_PRESSURE
Warning: No (valid) fields chosen for time convergence monitoring. Time convergence monitoring inactive.
Volume output fields: PRIMITIVE, RESIDUAL, COORDINATES, SOLUTION

------------------- Geometry Preprocessing ( Zone 0 ) -------------------
Two dimensional problem.
480 grid points.
437 volume elements.
6 surface markers.
9 boundary elements in index 0 (Marker = inlet).
9 boundary elements in index 1 (Marker = outlet).
19 boundary elements in index 2 (Marker = symmetry).
14 boundary elements in index 3 (Marker = outlet_coflow).
14 boundary elements in index 4 (Marker = inlet_coflow).
19 boundary elements in index 5 (Marker = farfield).
437 quadrilaterals.
Setting point connectivity.
Renumbering points (Reverse Cuthill McKee Ordering).
Recomputing point connectivity.
Setting element connectivity.
Checking the numerical grid orientation.
All volume elements are correctly oriented.
There has been a re-orientation of 42 LINE surface elements.
Identifying edges and vertices.
Setting the control volume structure.
Area of the computational grid: 0.01.
Searching for the closest normal neighbors to the surfaces.
Storing a mapping from global to local point index.
Compute the surface curvature.
Max K: 371.805. Mean K: 27.1121. Standard deviation K: 88.4354.
Checking for periodicity.
Computing mesh quality statistics for the dual control volumes.
+--------------------------------------------------------------+
|           Mesh Quality Metric|        Minimum|        Maximum|
+--------------------------------------------------------------+
|    Orthogonality Angle (deg.)|        84.4374|        89.9077|
|     CV Face Area Aspect Ratio|        1.08929|        9.23091|
|           CV Sub-Volume Ratio|        1.00293|        5.78571|
+--------------------------------------------------------------+
Finding max control volume width.
Wetted area = 0 m^2.
Area projection in the x-plane = 0 m, y-plane = 0 m.
Max. coordinate in the x-direction = -1e+10 m, y-direction = -1e+10 m.
Min. coordinate in the x-direction = 1e+10 m, y-direction = 1e+10 m.
Computing wall distances.

-------------------- Solver Preprocessing ( Zone 0 ) --------------------
Incompressible flow: rho_ref, vel_ref, temp_ref, p_ref
are set to 1.0 in order to perform a dimensional calculation.
Force coefficients computed using initial values.
The reference area for force coeffs. is 1 m^2.
The reference length for force coeffs. is 1 m.
The pressure is decomposed into thermodynamic and dynamic components.
The initial value of the dynamic pressure is 0.
Mach number: 0.00293713, computed using the Bulk modulus.
For external flows, the initial state is imposed at the far-field.
Angle of attack (deg): 0, computed using the initial velocity.
Side slip angle (deg): 0, computed using the initial velocity.
Reynolds number per meter: 68474, computed using initial values.
Reynolds number is a byproduct of inputs only (not used internally).
SI units only. The grid should be dimensional (meters).
No energy equation.

-- Models:
+------------------------------------------------------------------------------+
|          Viscosity Model|        Conductivity Model|              Fluid Model|
+------------------------------------------------------------------------------+
|       CONSTANT_VISCOSITY|          CONSTANT_PRANDTL|         CONSTANT_DENSITY|
+------------------------------------------------------------------------------+
-- Fluid properties:
+------------------------------------------------------------------------------+
|                  Name|    Dim. value|    Ref. value|      Unit|Non-dim. value|
+------------------------------------------------------------------------------+
|             Viscosity|     1.789e-05|             1|   N.s/m^2|     1.789e-05|
+------------------------------------------------------------------------------+
|        Prandtl (Lam.)|             -|             -|         -|          0.72|
|       Prandtl (Turb.)|             -|             -|         -|           0.9|
+------------------------------------------------------------------------------+
|          Bulk Modulus|        142000|             1|        Pa|        142000|
+------------------------------------------------------------------------------+
-- Initial and free-stream conditions:
+------------------------------------------------------------------------------+
|                  Name|    Dim. value|    Ref. value|      Unit|Non-dim. value|
+------------------------------------------------------------------------------+
|      Dynamic Pressure|             0|             1|        Pa|             0|
|        Total Pressure|        0.6125|             1|        Pa|        0.6125|
|               Density|         1.225|             1|    kg/m^3|         1.225|
|            Velocity-X|             1|             1|       m/s|             1|
|            Velocity-Y|             0|             1|       m/s|             0|
|    Velocity Magnitude|             1|             1|       m/s|             1|
+------------------------------------------------------------------------------+
|             Viscosity|     1.789e-05|             1|   N.s/m^2|     1.789e-05|
|          Conductivity|             -|             1|   W/m^2.K|             -|
|     Turb. Kin. Energy|       0.00375|             1|   m^2/s^2|       0.00375|
|     Spec. Dissipation|       25.6778|             1|       1/s|       25.6778|
+------------------------------------------------------------------------------+
|           Mach Number|             -|             -|         -|    0.00293713|
|       Reynolds Number|             -|             -|         -|         68474|
+------------------------------------------------------------------------------+
Initialize Jacobian structure (Navier-Stokes). MG level: 0.
Initialize Jacobian structure (SST model).

------------------- Numerics Preprocessing ( Zone 0 ) -------------------

----------------- Integration Preprocessing ( Zone 0 ) ------------------

------------------- Iteration Preprocessing ( Zone 0 ) ------------------
Euler/Navier-Stokes/RANS fluid iteration.

------------------------------ Begin Solver -----------------------------

Simulation Run using the Single-zone Driver
+----------------------------------------------------------------+
|  Inner_Iter|      rms[P]|      rms[U]|          CL|          CD|
+----------------------------------------------------------------+
|           0|   -2.051774|   -0.344278|    0.000000|    0.000000|
|           1|   -1.499613|    1.494321|    0.000000|    0.000000|
|           2|   -1.982149|    1.125379|    0.000000|    0.000000|
|           3|   -2.114543|    0.696440|    0.000000|    0.000000|
|           4|   -2.045282|    0.237538|    0.000000|    0.000000|
|           5|   -2.148266|   -0.088246|    0.000000|    0.000000|
|           6|   -2.273918|   -0.268412|    0.000000|    0.000000|
|           7|   -2.416315|   -0.369555|    0.000000|    0.000000|
|           8|   -2.428936|   -0.462926|    0.000000|    0.000000|
|           9|   -2.504081|   -0.532477|    0.000000|    0.000000|
|          10|   -2.685556|   -0.583852|    0.000000|    0.000000|
|          11|   -2.996758|   -0.665865|    0.000000|    0.000000|
|          12|   -2.935415|   -0.751105|    0.000000|    0.000000|
|          13|   -2.956109|   -0.735218|    0.000000|    0.000000|
|          14|   -3.111792|   -0.819964|    0.000000|    0.000000|
|          15|   -3.178821|   -0.852880|    0.000000|    0.000000|
|          16|   -3.274063|   -0.911400|    0.000000|    0.000000|
|          17|   -3.351891|   -0.997138|    0.000000|    0.000000|
|          18|   -3.441974|   -1.113530|    0.000000|    0.000000|
|          19|   -3.543284|   -1.266087|    0.000000|    0.000000|
|          20|   -3.684089|   -1.417861|    0.000000|    0.000000|
|          21|   -3.795977|   -1.517378|    0.000000|    0.000000|
|          22|   -3.861488|   -1.584746|    0.000000|    0.000000|
|          23|   -3.935139|   -1.671844|    0.000000|    0.000000|
|          24|   -4.046190|   -1.787328|    0.000000|    0.000000|
|          25|   -4.174599|   -1.912696|    0.000000|    0.000000|
|          26|   -4.293134|   -2.026678|    0.000000|    0.000000|
|          27|   -4.384342|   -2.116545|    0.000000|    0.000000|
|          28|   -4.447962|   -2.187208|    0.000000|    0.000000|
|          29|   -4.494046|   -2.249255|    0.000000|    0.000000|
|          30|   -4.529464|   -2.304402|    0.000000|    0.000000|
|          31|   -4.558397|   -2.354496|    0.000000|    0.000000|
|          32|   -4.583814|   -2.401401|    0.000000|    0.000000|
|          33|   -4.606615|   -2.444125|    0.000000|    0.000000|
|          34|   -4.626918|   -2.482643|    0.000000|    0.000000|
|          35|   -4.645401|   -2.517290|    0.000000|    0.000000|
|          36|   -4.662943|   -2.547916|    0.000000|    0.000000|
|          37|   -4.679866|   -2.574849|    0.000000|    0.000000|
|          38|   -4.695932|   -2.598641|    0.000000|    0.000000|
|          39|   -4.710881|   -2.619736|    0.000000|    0.000000|
|          40|   -4.724764|   -2.638640|    0.000000|    0.000000|
|          41|   -4.737883|   -2.655791|    0.000000|    0.000000|
|          42|   -4.750562|   -2.671561|    0.000000|    0.000000|
|          43|   -4.763002|   -2.686238|    0.000000|    0.000000|
|          44|   -4.775252|   -2.700021|    0.000000|    0.000000|
|          45|   -4.787317|   -2.713054|    0.000000|    0.000000|
|          46|   -4.799196|   -2.725461|    0.000000|    0.000000|
|          47|   -4.810929|   -2.737368|    0.000000|    0.000000|
|          48|   -4.822532|   -2.748870|    0.000000|    0.000000|
|          49|   -4.833974|   -2.760010|    0.000000|    0.000000|
|          50|   -4.845306|   -2.770849|    0.000000|    0.000000|
|          51|   -4.856543|   -2.781442|    0.000000|    0.000000|
|          52|   -4.867707|   -2.791822|    0.000000|    0.000000|
|          53|   -4.878791|   -2.802068|    0.000000|    0.000000|
|          54|   -4.889778|   -2.812224|    0.000000|    0.000000|
|          55|   -4.900686|   -2.822252|    0.000000|    0.000000|
|          56|   -4.911508|   -2.832162|    0.000000|    0.000000|
|          57|   -4.922237|   -2.841946|    0.000000|    0.000000|
|          58|   -4.932893|   -2.851610|    0.000000|    0.000000|
|          59|   -4.943451|   -2.861201|    0.000000|    0.000000|
|          60|   -4.953917|   -2.870772|    0.000000|    0.000000|
|          61|   -4.964344|   -2.880277|    0.000000|    0.000000|
|          62|   -4.974706|   -2.889691|    0.000000|    0.000000|
|          63|   -4.984986|   -2.898989|    0.000000|    0.000000|
|          64|   -4.995175|   -2.908185|    0.000000|    0.000000|
|          65|   -5.005269|   -2.917247|    0.000000|    0.000000|
|          66|   -5.015195|   -2.926208|    0.000000|    0.000000|
|          67|   -5.024971|   -2.935092|    0.000000|    0.000000|
|          68|   -5.034656|   -2.943904|    0.000000|    0.000000|
|          69|   -5.044271|   -2.952645|    0.000000|    0.000000|
|          70|   -5.053819|   -2.961318|    0.000000|    0.000000|
|          71|   -5.063298|   -2.969921|    0.000000|    0.000000|
|          72|   -5.072704|   -2.978451|    0.000000|    0.000000|
|          73|   -5.082031|   -2.986905|    0.000000|    0.000000|
|          74|   -5.091276|   -2.995278|    0.000000|    0.000000|
|          75|   -5.100436|   -3.003567|    0.000000|    0.000000|
|          76|   -5.109505|   -3.011769|    0.000000|    0.000000|
|          77|   -5.118483|   -3.019881|    0.000000|    0.000000|
|          78|   -5.127365|   -3.027940|    0.000000|    0.000000|
|          79|   -5.136170|   -3.035976|    0.000000|    0.000000|
|          80|   -5.144921|   -3.043908|    0.000000|    0.000000|
|          81|   -5.153568|   -3.051741|    0.000000|    0.000000|
|          82|   -5.162067|   -3.059467|    0.000000|    0.000000|
|          83|   -5.170431|   -3.067112|    0.000000|    0.000000|
|          84|   -5.178718|   -3.074730|    0.000000|    0.000000|
|          85|   -5.186987|   -3.082250|    0.000000|    0.000000|
|          86|   -5.195145|   -3.089665|    0.000000|    0.000000|
|          87|   -5.203181|   -3.096971|    0.000000|    0.000000|
|          88|   -5.211107|   -3.104193|    0.000000|    0.000000|
|          89|   -5.219070|   -3.111368|    0.000000|    0.000000|
|          90|   -5.226989|   -3.118483|    0.000000|    0.000000|
|          91|   -5.234814|   -3.125547|    0.000000|    0.000000|
|          92|   -5.242483|   -3.132553|    0.000000|    0.000000|
|          93|   -5.249974|   -3.139490|    0.000000|    0.000000|
|          94|   -5.257318|   -3.146345|    0.000000|    0.000000|
|          95|   -5.264543|   -3.153109|    0.000000|    0.000000|
|          96|   -5.271662|   -3.159775|    0.000000|    0.000000|
|          97|   -5.278678|   -3.166336|    0.000000|    0.000000|
|          98|   -5.285598|   -3.172806|    0.000000|    0.000000|
|          99|   -5.292421|   -3.179166|    0.000000|    0.000000|
|         100|   -5.299143|   -3.185412|    0.000000|    0.000000|
|         101|   -5.305764|   -3.191622|    0.000000|    0.000000|
|         102|   -5.312654|   -3.198756|    0.000000|    0.000000|
|         103|   -5.320482|   -3.205726|    0.000000|    0.000000|
|         104|   -5.328338|   -3.212759|    0.000000|    0.000000|
|         105|   -5.336236|   -3.219865|    0.000000|    0.000000|
|         106|   -5.344187|   -3.227000|    0.000000|    0.000000|
|         107|   -5.352438|   -3.234367|    0.000000|    0.000000|
|         108|   -5.361060|   -3.241001|    0.000000|    0.000000|
|         109|   -5.368909|   -3.247228|    0.000000|    0.000000|
|         110|   -5.376393|   -3.253313|    0.000000|    0.000000|
|         111|   -5.383751|   -3.259647|    0.000000|    0.000000|
|         112|   -5.390975|   -3.266021|    0.000000|    0.000000|
|         113|   -5.397994|   -3.272070|    0.000000|    0.000000|
|         114|   -5.404796|   -3.277876|    0.000000|    0.000000|
|         115|   -5.411353|   -3.283474|    0.000000|    0.000000|
|         116|   -5.417538|   -3.289049|    0.000000|    0.000000|
|         117|   -5.423938|   -3.294595|    0.000000|    0.000000|
|         118|   -5.430206|   -3.300016|    0.000000|    0.000000|
|         119|   -5.436173|   -3.305212|    0.000000|    0.000000|
|         120|   -5.441857|   -3.310205|    0.000000|    0.000000|
|         121|   -5.447328|   -3.315015|    0.000000|    0.000000|
|         122|   -5.452619|   -3.319628|    0.000000|    0.000000|
|         123|   -5.457739|   -3.324042|    0.000000|    0.000000|
|         124|   -5.462691|   -3.328278|    0.000000|    0.000000|
|         125|   -5.467451|   -3.332354|    0.000000|    0.000000|
|         126|   -5.471996|   -3.336266|    0.000000|    0.000000|
|         127|   -5.476410|   -3.340013|    0.000000|    0.000000|
|         128|   -5.480682|   -3.343625|    0.000000|    0.000000|
|         129|   -5.484779|   -3.347130|    0.000000|    0.000000|
|         130|   -5.488791|   -3.350420|    0.000000|    0.000000|
|         131|   -5.492697|   -3.353583|    0.000000|    0.000000|
|         132|   -5.496251|   -3.356670|    0.000000|    0.000000|
|         133|   -5.499444|   -3.359614|    0.000000|    0.000000|
|         134|   -5.502434|   -3.362405|    0.000000|    0.000000|
|         135|   -5.505371|   -3.365263|    0.000000|    0.000000|
|         136|   -5.508396|   -3.367858|    0.000000|    0.000000|
|         137|   -5.511240|   -3.370088|    0.000000|    0.000000|
|         138|   -5.513533|   -3.372407|    0.000000|    0.000000|
|         139|   -5.515664|   -3.374749|    0.000000|    0.000000|
|         140|   -5.517788|   -3.376874|    0.000000|    0.000000|
|         141|   -5.519657|   -3.378885|    0.000000|    0.000000|
|         142|   -5.521452|   -3.380887|    0.000000|    0.000000|
|         143|   -5.523067|   -3.382685|    0.000000|    0.000000|
|         144|   -5.524594|   -3.384344|    0.000000|    0.000000|
|         145|   -5.526060|   -3.385921|    0.000000|    0.000000|
|         146|   -5.527417|   -3.387413|    0.000000|    0.000000|
|         147|   -5.528650|   -3.388809|    0.000000|    0.000000|
|         148|   -5.529769|   -3.390098|    0.000000|    0.000000|
|         149|   -5.530791|   -3.391286|    0.000000|    0.000000|
|         150|   -5.531706|   -3.392376|    0.000000|    0.000000|
|         151|   -5.532599|   -3.393387|    0.000000|    0.000000|
|         152|   -5.533096|   -3.394248|    0.000000|    0.000000|
|         153|   -5.533082|   -3.394945|    0.000000|    0.000000|
|         154|   -5.532927|   -3.395468|    0.000000|    0.000000|
|         155|   -5.532777|   -3.395837|    0.000000|    0.000000|
|         156|   -5.532630|   -3.396117|    0.000000|    0.000000|
|         157|   -5.532466|   -3.396336|    0.000000|    0.000000|
|         158|   -5.532277|   -3.396502|    0.000000|    0.000000|
|         159|   -5.532064|   -3.396545|    0.000000|    0.000000|
|         160|   -5.531801|   -3.396607|    0.000000|    0.000000|
|         161|   -5.531508|   -3.396622|    0.000000|    0.000000|
|         162|   -5.531138|   -3.396575|    0.000000|    0.000000|
|         163|   -5.530688|   -3.396468|    0.000000|    0.000000|
|         164|   -5.530160|   -3.396305|    0.000000|    0.000000|
|         165|   -5.529526|   -3.396071|    0.000000|    0.000000|
|         166|   -5.528748|   -3.395691|    0.000000|    0.000000|
|         167|   -5.527911|   -3.395222|    0.000000|    0.000000|
|         168|   -5.527018|   -3.394659|    0.000000|    0.000000|
|         169|   -5.525942|   -3.394006|    0.000000|    0.000000|
|         170|   -5.524787|   -3.393277|    0.000000|    0.000000|
|         171|   -5.523636|   -3.392480|    0.000000|    0.000000|
|         172|   -5.522539|   -3.391618|    0.000000|    0.000000|
|         173|   -5.521380|   -3.390689|    0.000000|    0.000000|
|         174|   -5.520155|   -3.389692|    0.000000|    0.000000|
|         175|   -5.518851|   -3.388617|    0.000000|    0.000000|
|         176|   -5.517451|   -3.387462|    0.000000|    0.000000|
|         177|   -5.515942|   -3.386225|    0.000000|    0.000000|
|         178|   -5.514328|   -3.384889|    0.000000|    0.000000|
|         179|   -5.512630|   -3.383524|    0.000000|    0.000000|
|         180|   -5.510728|   -3.381959|    0.000000|    0.000000|
|         181|   -5.508255|   -3.380251|    0.000000|    0.000000|
|         182|   -5.505688|   -3.378454|    0.000000|    0.000000|
|         183|   -5.503184|   -3.376583|    0.000000|    0.000000|
|         184|   -5.500691|   -3.374637|    0.000000|    0.000000|
|         185|   -5.498204|   -3.372588|    0.000000|    0.000000|
|         186|   -5.495685|   -3.370448|    0.000000|    0.000000|
|         187|   -5.493111|   -3.368239|    0.000000|    0.000000|
|         188|   -5.490457|   -3.365960|    0.000000|    0.000000|
|         189|   -5.487699|   -3.363615|    0.000000|    0.000000|
|         190|   -5.484847|   -3.361216|    0.000000|    0.000000|
|         191|   -5.481944|   -3.358744|    0.000000|    0.000000|
|         192|   -5.478981|   -3.356202|    0.000000|    0.000000|
|         193|   -5.475971|   -3.353587|    0.000000|    0.000000|
|         194|   -5.472864|   -3.350888|    0.000000|    0.000000|
|         195|   -5.469679|   -3.348100|    0.000000|    0.000000|
|         196|   -5.466400|   -3.345241|    0.000000|    0.000000|
|         197|   -5.463033|   -3.342323|    0.000000|    0.000000|
|         198|   -5.459617|   -3.339344|    0.000000|    0.000000|
|         199|   -5.456120|   -3.336293|    0.000000|    0.000000|
|         200|   -5.452521|   -3.333164|    0.000000|    0.000000|
|         201|   -5.448818|   -3.329952|    0.000000|    0.000000|
|         202|   -5.445010|   -3.326654|    0.000000|    0.000000|
|         203|   -5.441094|   -3.323270|    0.000000|    0.000000|
|         204|   -5.437070|   -3.319800|    0.000000|    0.000000|
|         205|   -5.432936|   -3.316239|    0.000000|    0.000000|
|         206|   -5.428694|   -3.312584|    0.000000|    0.000000|
|         207|   -5.424351|   -3.308843|    0.000000|    0.000000|
|         208|   -5.419907|   -3.305018|    0.000000|    0.000000|
|         209|   -5.415360|   -3.301112|    0.000000|    0.000000|
|         210|   -5.410730|   -3.297131|    0.000000|    0.000000|
|         211|   -5.406032|   -3.293074|    0.000000|    0.000000|
|         212|   -5.401238|   -3.288938|    0.000000|    0.000000|
|         213|   -5.396335|   -3.284703|    0.000000|    0.000000|
|         214|   -5.391371|   -3.280386|    0.000000|    0.000000|
|         215|   -5.386341|   -3.275973|    0.000000|    0.000000|
|         216|   -5.381206|   -3.271466|    0.000000|    0.000000|
|         217|   -5.375959|   -3.266877|    0.000000|    0.000000|
|         218|   -5.370602|   -3.262214|    0.000000|    0.000000|
|         219|   -5.364959|   -3.257459|    0.000000|    0.000000|
|         220|   -5.359164|   -3.252605|    0.000000|    0.000000|
|         221|   -5.353304|   -3.247663|    0.000000|    0.000000|
|         222|   -5.347480|   -3.242689|    0.000000|    0.000000|
|         223|   -5.341630|   -3.237656|    0.000000|    0.000000|
|         224|   -5.335704|   -3.232546|    0.000000|    0.000000|
|         225|   -5.329690|   -3.227359|    0.000000|    0.000000|
|         226|   -5.323606|   -3.222091|    0.000000|    0.000000|
|         227|   -5.317431|   -3.216743|    0.000000|    0.000000|
|         228|   -5.311160|   -3.211314|    0.000000|    0.000000|
|         229|   -5.304788|   -3.205805|    0.000000|    0.000000|
|         230|   -5.298313|   -3.200219|    0.000000|    0.000000|
|         231|   -5.291761|   -3.194559|    0.000000|    0.000000|
|         232|   -5.285111|   -3.188810|    0.000000|    0.000000|
|         233|   -5.278390|   -3.182998|    0.000000|    0.000000|
|         234|   -5.271587|   -3.177127|    0.000000|    0.000000|
|         235|   -5.264682|   -3.171187|    0.000000|    0.000000|
|         236|   -5.257680|   -3.165184|    0.000000|    0.000000|
|         237|   -5.250588|   -3.159115|    0.000000|    0.000000|
|         238|   -5.243386|   -3.152966|    0.000000|    0.000000|
|         239|   -5.236052|   -3.146714|    0.000000|    0.000000|
|         240|   -5.228558|   -3.140336|    0.000000|    0.000000|
|         241|   -5.221005|   -3.133885|    0.000000|    0.000000|
|         242|   -5.213377|   -3.127357|    0.000000|    0.000000|
|         243|   -5.205667|   -3.120755|    0.000000|    0.000000|
|         244|   -5.197879|   -3.114086|    0.000000|    0.000000|
|         245|   -5.190018|   -3.107354|    0.000000|    0.000000|
|         246|   -5.182088|   -3.100560|    0.000000|    0.000000|
|         247|   -5.174091|   -3.093708|    0.000000|    0.000000|
|         248|   -5.166043|   -3.086798|    0.000000|    0.000000|
|         249|   -5.157934|   -3.079834|    0.000000|    0.000000|
|         250|   -5.149761|   -3.072819|    0.000000|    0.000000|
|         251|   -5.141526|   -3.065754|    0.000000|    0.000000|
|         252|   -5.133229|   -3.058644|    0.000000|    0.000000|
|         253|   -5.124871|   -3.051487|    0.000000|    0.000000|
|         254|   -5.116451|   -3.044287|    0.000000|    0.000000|
|         255|   -5.107972|   -3.037050|    0.000000|    0.000000|
|         256|   -5.099397|   -3.029788|    0.000000|    0.000000|
|         257|   -5.090748|   -3.022482|    0.000000|    0.000000|
|         258|   -5.082046|   -3.015137|    0.000000|    0.000000|
|         259|   -5.073298|   -3.007759|    0.000000|    0.000000|
|         260|   -5.064512|   -3.000349|    0.000000|    0.000000|
|         261|   -5.055690|   -2.992910|    0.000000|    0.000000|
|         262|   -5.046827|   -2.985441|    0.000000|    0.000000|
|         263|   -5.037918|   -2.977931|    0.000000|    0.000000|
|         264|   -5.028996|   -2.970382|    0.000000|    0.000000|
|         265|   -5.020063|   -2.962815|    0.000000|    0.000000|
|         266|   -5.011092|   -2.955227|    0.000000|    0.000000|
|         267|   -5.002079|   -2.947623|    0.000000|    0.000000|
|         268|   -4.993031|   -2.940006|    0.000000|    0.000000|
|         269|   -4.983947|   -2.932377|    0.000000|    0.000000|
|         270|   -4.974832|   -2.924742|    0.000000|    0.000000|
|         271|   -4.965691|   -2.917103|    0.000000|    0.000000|
|         272|   -4.956544|   -2.909479|    0.000000|    0.000000|
|         273|   -4.947403|   -2.901878|    0.000000|    0.000000|
|         274|   -4.938254|   -2.894294|    0.000000|    0.000000|
|         275|   -4.929103|   -2.886730|    0.000000|    0.000000|
|         276|   -4.919961|   -2.879188|    0.000000|    0.000000|
|         277|   -4.910832|   -2.871677|    0.000000|    0.000000|
|         278|   -4.901732|   -2.864207|    0.000000|    0.000000|
|         279|   -4.892646|   -2.856777|    0.000000|    0.000000|
|         280|   -4.883574|   -2.849396|    0.000000|    0.000000|
|         281|   -4.874535|   -2.842076|    0.000000|    0.000000|
|         282|   -4.865545|   -2.834826|    0.000000|    0.000000|
|         283|   -4.856613|   -2.827653|    0.000000|    0.000000|
|         284|   -4.847751|   -2.820558|    0.000000|    0.000000|
|         285|   -4.838943|   -2.813529|    0.000000|    0.000000|
|         286|   -4.830180|   -2.806586|    0.000000|    0.000000|
|         287|   -4.821506|   -2.799764|    0.000000|    0.000000|
|         288|   -4.812939|   -2.793075|    0.000000|    0.000000|
|         289|   -4.804490|   -2.786516|    0.000000|    0.000000|
|         290|   -4.796189|   -2.780100|    0.000000|    0.000000|
|         291|   -4.788056|   -2.773843|    0.000000|    0.000000|
|         292|   -4.780115|   -2.767760|    0.000000|    0.000000|
|         293|   -4.772386|   -2.761867|    0.000000|    0.000000|
|         294|   -4.764878|   -2.756173|    0.000000|    0.000000|
|         295|   -4.757601|   -2.750676|    0.000000|    0.000000|
|         296|   -4.750564|   -2.745385|    0.000000|    0.000000|
|         297|   -4.743790|   -2.740336|    0.000000|    0.000000|
|         298|   -4.737306|   -2.735548|    0.000000|    0.000000|
|         299|   -4.731138|   -2.731036|    0.000000|    0.000000|
|         300|   -4.725307|   -2.726813|    0.000000|    0.000000|
|         301|   -4.719833|   -2.722887|    0.000000|    0.000000|
|         302|   -4.714731|   -2.719248|    0.000000|    0.000000|
|         303|   -4.710039|   -2.715915|    0.000000|    0.000000|
|         304|   -4.705778|   -2.712910|    0.000000|    0.000000|
|         305|   -4.701971|   -2.710246|    0.000000|    0.000000|
|         306|   -4.698655|   -2.707929|    0.000000|    0.000000|
|         307|   -4.695867|   -2.705972|    0.000000|    0.000000|
|         308|   -4.693611|   -2.704386|    0.000000|    0.000000|
|         309|   -4.691909|   -2.703184|    0.000000|    0.000000|
|         310|   -4.690774|   -2.702362|    0.000000|    0.000000|
|         311|   -4.690208|   -2.701869|    0.000000|    0.000000|
|         312|   -4.690252|   -2.701733|    0.000000|    0.000000|
|         313|   -4.690839|   -2.701886|    0.000000|    0.000000|
|         314|   -4.692011|   -2.702349|    0.000000|    0.000000|
|         315|   -4.693810|   -2.703155|    0.000000|    0.000000|
|         316|   -4.696247|   -2.704260|    0.000000|    0.000000|
|         317|   -4.699347|   -2.705653|    0.000000|    0.000000|
|         318|   -4.703134|   -2.707330|    0.000000|    0.000000|
|         319|   -4.707613|   -2.709241|    0.000000|    0.000000|
|         320|   -4.712794|   -2.711334|    0.000000|    0.000000|
|         321|   -4.718664|   -2.713624|    0.000000|    0.000000|
|         322|   -4.725181|   -2.716101|    0.000000|    0.000000|
|         323|   -4.732299|   -2.718737|    0.000000|    0.000000|
|         324|   -4.739955|   -2.721492|    0.000000|    0.000000|
|         325|   -4.748077|   -2.724351|    0.000000|    0.000000|
|         326|   -4.756573|   -2.727284|    0.000000|    0.000000|
|         327|   -4.765306|   -2.730240|    0.000000|    0.000000|
|         328|   -4.774185|   -2.733230|    0.000000|    0.000000|
|         329|   -4.783114|   -2.736243|    0.000000|    0.000000|
|         330|   -4.791974|   -2.739279|    0.000000|    0.000000|
|         331|   -4.800652|   -2.742342|    0.000000|    0.000000|
|         332|   -4.809023|   -2.745438|    0.000000|    0.000000|
|         333|   -4.816979|   -2.748530|    0.000000|    0.000000|
|         334|   -4.824419|   -2.751621|    0.000000|    0.000000|
|         335|   -4.831253|   -2.754645|    0.000000|    0.000000|
|         336|   -4.837492|   -2.757670|    0.000000|    0.000000|
|         337|   -4.843061|   -2.760744|    0.000000|    0.000000|
|         338|   -4.847913|   -2.763850|    0.000000|    0.000000|
|         339|   -4.852041|   -2.767010|    0.000000|    0.000000|
|         340|   -4.855427|   -2.770182|    0.000000|    0.000000|
|         341|   -4.858068|   -2.773301|    0.000000|    0.000000|
|         342|   -4.859999|   -2.776378|    0.000000|    0.000000|
|         343|   -4.861291|   -2.779407|    0.000000|    0.000000|
|         344|   -4.862025|   -2.782387|    0.000000|    0.000000|
|         345|   -4.862279|   -2.785308|    0.000000|    0.000000|
|         346|   -4.862115|   -2.788151|    0.000000|    0.000000|
|         347|   -4.861570|   -2.790885|    0.000000|    0.000000|
|         348|   -4.860682|   -2.793468|    0.000000|    0.000000|
|         349|   -4.859498|   -2.795883|    0.000000|    0.000000|
|         350|   -4.858055|   -2.798098|    0.000000|    0.000000|
|         351|   -4.856387|   -2.800093|    0.000000|    0.000000|
|         352|   -4.854512|   -2.801856|    0.000000|    0.000000|
|         353|   -4.852462|   -2.803353|    0.000000|    0.000000|
|         354|   -4.850247|   -2.804560|    0.000000|    0.000000|
|         355|   -4.847875|   -2.805467|    0.000000|    0.000000|
|         356|   -4.845363|   -2.806067|    0.000000|    0.000000|
|         357|   -4.842724|   -2.806358|    0.000000|    0.000000|
|         358|   -4.839971|   -2.806345|    0.000000|    0.000000|
|         359|   -4.837123|   -2.806038|    0.000000|    0.000000|
|         360|   -4.834203|   -2.805452|    0.000000|    0.000000|
|         361|   -4.831232|   -2.804612|    0.000000|    0.000000|
|         362|   -4.828238|   -2.803542|    0.000000|    0.000000|
|         363|   -4.825242|   -2.802271|    0.000000|    0.000000|
|         364|   -4.822269|   -2.800834|    0.000000|    0.000000|
|         365|   -4.819348|   -2.799264|    0.000000|    0.000000|
|         366|   -4.816503|   -2.797590|    0.000000|    0.000000|
|         367|   -4.813758|   -2.795842|    0.000000|    0.000000|
|         368|   -4.811133|   -2.794051|    0.000000|    0.000000|
|         369|   -4.808647|   -2.792245|    0.000000|    0.000000|
|         370|   -4.806318|   -2.790448|    0.000000|    0.000000|
|         371|   -4.804163|   -2.788682|    0.000000|    0.000000|
|         372|   -4.802194|   -2.786972|    0.000000|    0.000000|
|         373|   -4.800419|   -2.785336|    0.000000|    0.000000|
|         374|   -4.798844|   -2.783792|    0.000000|    0.000000|
|         375|   -4.797472|   -2.782353|    0.000000|    0.000000|
|         376|   -4.796305|   -2.781032|    0.000000|    0.000000|
|         377|   -4.795345|   -2.779839|    0.000000|    0.000000|
|         378|   -4.794591|   -2.778781|    0.000000|    0.000000|
|         379|   -4.794058|   -2.777860|    0.000000|    0.000000|
|         380|   -4.793735|   -2.777088|    0.000000|    0.000000|
|         381|   -4.793613|   -2.776467|    0.000000|    0.000000|
|         382|   -4.793682|   -2.775996|    0.000000|    0.000000|
|         383|   -4.793937|   -2.775675|    0.000000|    0.000000|
|         384|   -4.794375|   -2.775511|    0.000000|    0.000000|
|         385|   -4.794995|   -2.775503|    0.000000|    0.000000|
|         386|   -4.795789|   -2.775639|    0.000000|    0.000000|
|         387|   -4.796738|   -2.775917|    0.000000|    0.000000|
|         388|   -4.797828|   -2.776335|    0.000000|    0.000000|
|         389|   -4.799053|   -2.776887|    0.000000|    0.000000|
|         390|   -4.800405|   -2.777568|    0.000000|    0.000000|
|         391|   -4.801875|   -2.778373|    0.000000|    0.000000|
|         392|   -4.803449|   -2.779292|    0.000000|    0.000000|
|         393|   -4.805119|   -2.780316|    0.000000|    0.000000|
|         394|   -4.806879|   -2.781445|    0.000000|    0.000000|
|         395|   -4.808722|   -2.782672|    0.000000|    0.000000|
|         396|   -4.810640|   -2.783990|    0.000000|    0.000000|
|         397|   -4.812628|   -2.785392|    0.000000|    0.000000|
|         398|   -4.814692|   -2.786870|    0.000000|    0.000000|
|         399|   -4.816813|   -2.788424|    0.000000|    0.000000|
|         400|   -4.818984|   -2.790044|    0.000000|    0.000000|
|         401|   -4.821198|   -2.791722|    0.000000|    0.000000|
|         402|   -4.823451|   -2.793449|    0.000000|    0.000000|
|         403|   -4.825739|   -2.795221|    0.000000|    0.000000|
|         404|   -4.828054|   -2.797034|    0.000000|    0.000000|
|         405|   -4.830392|   -2.798878|    0.000000|    0.000000|
|         406|   -4.832750|   -2.800747|    0.000000|    0.000000|
|         407|   -4.835126|   -2.802635|    0.000000|    0.000000|
|         408|   -4.837516|   -2.804537|    0.000000|    0.000000|
|         409|   -4.839919|   -2.806451|    0.000000|    0.000000|
|         410|   -4.842336|   -2.808373|    0.000000|    0.000000|
|         411|   -4.844769|   -2.810305|    0.000000|    0.000000|
|         412|   -4.847217|   -2.812243|    0.000000|    0.000000|
|         413|   -4.849677|   -2.814185|    0.000000|    0.000000|
|         414|   -4.852148|   -2.816128|    0.000000|    0.000000|
|         415|   -4.854628|   -2.818069|    0.000000|    0.000000|
|         416|   -4.857118|   -2.820007|    0.000000|    0.000000|
|         417|   -4.859616|   -2.821941|    0.000000|    0.000000|
|         418|   -4.862122|   -2.823867|    0.000000|    0.000000|
|         419|   -4.864636|   -2.825786|    0.000000|    0.000000|
|         420|   -4.867155|   -2.827696|    0.000000|    0.000000|
|         421|   -4.869679|   -2.829594|    0.000000|    0.000000|
|         422|   -4.872208|   -2.831480|    0.000000|    0.000000|
|         423|   -4.874747|   -2.833349|    0.000000|    0.000000|
|         424|   -4.877293|   -2.835202|    0.000000|    0.000000|
|         425|   -4.879844|   -2.837040|    0.000000|    0.000000|
|         426|   -4.882398|   -2.838863|    0.000000|    0.000000|
|         427|   -4.884953|   -2.840666|    0.000000|    0.000000|
|         428|   -4.887505|   -2.842444|    0.000000|    0.000000|
|         429|   -4.890052|   -2.844195|    0.000000|    0.000000|
|         430|   -4.892590|   -2.845915|    0.000000|    0.000000|
|         431|   -4.895117|   -2.847601|    0.000000|    0.000000|
|         432|   -4.897627|   -2.849251|    0.000000|    0.000000|
|         433|   -4.900117|   -2.850860|    0.000000|    0.000000|
|         434|   -4.902586|   -2.852425|    0.000000|    0.000000|
|         435|   -4.905027|   -2.853939|    0.000000|    0.000000|
|         436|   -4.907434|   -2.855399|    0.000000|    0.000000|
|         437|   -4.909803|   -2.856800|    0.000000|    0.000000|
|         438|   -4.912129|   -2.858138|    0.000000|    0.000000|
|         439|   -4.914407|   -2.859412|    0.000000|    0.000000|
|         440|   -4.916630|   -2.860614|    0.000000|    0.000000|
|         441|   -4.918795|   -2.861742|    0.000000|    0.000000|
|         442|   -4.920896|   -2.862790|    0.000000|    0.000000|
|         443|   -4.922928|   -2.863752|    0.000000|    0.000000|
|         444|   -4.924878|   -2.864625|    0.000000|    0.000000|
|         445|   -4.926754|   -2.865407|    0.000000|    0.000000|
|         446|   -4.928557|   -2.866097|    0.000000|    0.000000|
|         447|   -4.930282|   -2.866693|    0.000000|    0.000000|
|         448|   -4.931923|   -2.867191|    0.000000|    0.000000|
|         449|   -4.933476|   -2.867590|    0.000000|    0.000000|
|         450|   -4.934943|   -2.867891|    0.000000|    0.000000|
|         451|   -4.936329|   -2.868096|    0.000000|    0.000000|
|         452|   -4.937622|   -2.868202|    0.000000|    0.000000|
|         453|   -4.938820|   -2.868212|    0.000000|    0.000000|
|         454|   -4.939921|   -2.868126|    0.000000|    0.000000|
|         455|   -4.940925|   -2.867946|    0.000000|    0.000000|
|         456|   -4.941834|   -2.867676|    0.000000|    0.000000|
|         457|   -4.942657|   -2.867320|    0.000000|    0.000000|
|         458|   -4.943388|   -2.866880|    0.000000|    0.000000|
|         459|   -4.944028|   -2.866360|    0.000000|    0.000000|
|         460|   -4.944578|   -2.865765|    0.000000|    0.000000|
|         461|   -4.945043|   -2.865099|    0.000000|    0.000000|
|         462|   -4.945424|   -2.864368|    0.000000|    0.000000|
|         463|   -4.945727|   -2.863576|    0.000000|    0.000000|
|         464|   -4.945954|   -2.862729|    0.000000|    0.000000|
|         465|   -4.946110|   -2.861834|    0.000000|    0.000000|
|         466|   -4.946199|   -2.860896|    0.000000|    0.000000|
|         467|   -4.946225|   -2.859919|    0.000000|    0.000000|
|         468|   -4.946219|   -2.858908|    0.000000|    0.000000|
|         469|   -4.946183|   -2.857881|    0.000000|    0.000000|
|         470|   -4.946117|   -2.856850|    0.000000|    0.000000|
|         471|   -4.946012|   -2.855820|    0.000000|    0.000000|
|         472|   -4.945874|   -2.854797|    0.000000|    0.000000|
|         473|   -4.945704|   -2.853787|    0.000000|    0.000000|
|         474|   -4.945514|   -2.852796|    0.000000|    0.000000|
|         475|   -4.945304|   -2.851791|    0.000000|    0.000000|
|         476|   -4.945046|   -2.850784|    0.000000|    0.000000|
|         477|   -4.944743|   -2.849790|    0.000000|    0.000000|
|         478|   -4.944411|   -2.848818|    0.000000|    0.000000|
|         479|   -4.944064|   -2.847879|    0.000000|    0.000000|
|         480|   -4.943713|   -2.846969|    0.000000|    0.000000|
|         481|   -4.943361|   -2.846093|    0.000000|    0.000000|
|         482|   -4.943012|   -2.845257|    0.000000|    0.000000|
|         483|   -4.942670|   -2.844465|    0.000000|    0.000000|
|         484|   -4.942340|   -2.843721|    0.000000|    0.000000|
|         485|   -4.942026|   -2.843029|    0.000000|    0.000000|
|         486|   -4.941737|   -2.842395|    0.000000|    0.000000|
|         487|   -4.941476|   -2.841822|    0.000000|    0.000000|
|         488|   -4.941247|   -2.841315|    0.000000|    0.000000|
|         489|   -4.941055|   -2.840877|    0.000000|    0.000000|
|         490|   -4.940905|   -2.840514|    0.000000|    0.000000|
|         491|   -4.940803|   -2.840228|    0.000000|    0.000000|
|         492|   -4.940754|   -2.840023|    0.000000|    0.000000|
|         493|   -4.940768|   -2.839903|    0.000000|    0.000000|
|         494|   -4.940848|   -2.839872|    0.000000|    0.000000|
|         495|   -4.940993|   -2.839934|    0.000000|    0.000000|
|         496|   -4.941208|   -2.840091|    0.000000|    0.000000|
|         497|   -4.941497|   -2.840346|    0.000000|    0.000000|
|         498|   -4.941863|   -2.840700|    0.000000|    0.000000|
|         499|   -4.942330|   -2.841156|    0.000000|    0.000000|
|         500|   -4.942911|   -2.841725|    0.000000|    0.000000|
+-----------------------------------------------------------------------+
|        File Writing Summary       |              Filename             |
+-----------------------------------------------------------------------+
|Paraview                           |vol_solution.vtu                   |
|SU2 binary restart                 |restart_jet.dat                    |
+-----------------------------------------------------------------------+
+----------------------------------------------------------------+
|  Inner_Iter|      rms[P]|      rms[U]|          CL|          CD|
+----------------------------------------------------------------+
|         501|   -4.943586|   -2.842409|    0.000000|    0.000000|
|         502|   -4.944350|   -2.843212|    0.000000|    0.000000|
|         503|   -4.945205|   -2.844134|    0.000000|    0.000000|
|         504|   -4.946150|   -2.845174|    0.000000|    0.000000|
|         505|   -4.947189|   -2.846334|    0.000000|    0.000000|
|         506|   -4.948322|   -2.847617|    0.000000|    0.000000|
|         507|   -4.949553|   -2.849022|    0.000000|    0.000000|
|         508|   -4.950884|   -2.850551|    0.000000|    0.000000|
|         509|   -4.952317|   -2.852207|    0.000000|    0.000000|
|         510|   -4.953854|   -2.853989|    0.000000|    0.000000|
|         511|   -4.955499|   -2.855899|    0.000000|    0.000000|
|         512|   -4.957254|   -2.857938|    0.000000|    0.000000|
|         513|   -4.959121|   -2.860107|    0.000000|    0.000000|
|         514|   -4.961109|   -2.862409|    0.000000|    0.000000|
|         515|   -4.963220|   -2.864844|    0.000000|    0.000000|
|         516|   -4.965453|   -2.867411|    0.000000|    0.000000|
|         517|   -4.967804|   -2.870110|    0.000000|    0.000000|
|         518|   -4.970276|   -2.872941|    0.000000|    0.000000|
|         519|   -4.972869|   -2.875904|    0.000000|    0.000000|
|         520|   -4.975584|   -2.879001|    0.000000|    0.000000|
|         521|   -4.978423|   -2.882229|    0.000000|    0.000000|
|         522|   -4.981387|   -2.885593|    0.000000|    0.000000|
|         523|   -4.984478|   -2.889090|    0.000000|    0.000000|
|         524|   -4.987698|   -2.892718|    0.000000|    0.000000|
|         525|   -4.991058|   -2.896475|    0.000000|    0.000000|
|         526|   -4.994568|   -2.900372|    0.000000|    0.000000|
|         527|   -4.998212|   -2.904404|    0.000000|    0.000000|
|         528|   -5.001982|   -2.908571|    0.000000|    0.000000|
|         529|   -5.005880|   -2.912871|    0.000000|    0.000000|
|         530|   -5.009899|   -2.917303|    0.000000|    0.000000|
|         531|   -5.014039|   -2.921864|    0.000000|    0.000000|
|         532|   -5.018294|   -2.926553|    0.000000|    0.000000|
|         533|   -5.022669|   -2.931372|    0.000000|    0.000000|
|         534|   -5.027170|   -2.936320|    0.000000|    0.000000|
|         535|   -5.031798|   -2.941395|    0.000000|    0.000000|
|         536|   -5.036550|   -2.946597|    0.000000|    0.000000|
|         537|   -5.041427|   -2.951926|    0.000000|    0.000000|
|         538|   -5.046428|   -2.957377|    0.000000|    0.000000|
|         539|   -5.051559|   -2.962953|    0.000000|    0.000000|
|         540|   -5.056817|   -2.968649|    0.000000|    0.000000|
|         541|   -5.062199|   -2.974463|    0.000000|    0.000000|
|         542|   -5.067703|   -2.980395|    0.000000|    0.000000|
|         543|   -5.073326|   -2.986444|    0.000000|    0.000000|
|         544|   -5.079067|   -2.992608|    0.000000|    0.000000|
|         545|   -5.084925|   -2.998884|    0.000000|    0.000000|
|         546|   -5.090898|   -3.005270|    0.000000|    0.000000|
|         547|   -5.096987|   -3.011763|    0.000000|    0.000000|
|         548|   -5.103189|   -3.018361|    0.000000|    0.000000|
|         549|   -5.109506|   -3.025053|    0.000000|    0.000000|
|         550|   -5.115948|   -3.031851|    0.000000|    0.000000|
|         551|   -5.122506|   -3.038745|    0.000000|    0.000000|
|         552|   -5.129172|   -3.045754|    0.000000|    0.000000|
|         553|   -5.135930|   -3.052852|    0.000000|    0.000000|
|         554|   -5.142777|   -3.059986|    0.000000|    0.000000|
|         555|   -5.149724|   -3.067162|    0.000000|    0.000000|
|         556|   -5.156742|   -3.074370|    0.000000|    0.000000|
|         557|   -5.163809|   -3.081602|    0.000000|    0.000000|
|         558|   -5.170913|   -3.088854|    0.000000|    0.000000|
|         559|   -5.178051|   -3.096121|    0.000000|    0.000000|
|         560|   -5.185226|   -3.103402|    0.000000|    0.000000|
|         561|   -5.192444|   -3.110692|    0.000000|    0.000000|
|         562|   -5.199712|   -3.117991|    0.000000|    0.000000|
|         563|   -5.207034|   -3.125293|    0.000000|    0.000000|
|         564|   -5.214414|   -3.132583|    0.000000|    0.000000|
|         565|   -5.221891|   -3.139861|    0.000000|    0.000000|
|         566|   -5.229508|   -3.147156|    0.000000|    0.000000|
|         567|   -5.237250|   -3.154461|    0.000000|    0.000000|
|         568|   -5.245093|   -3.161763|    0.000000|    0.000000|
|         569|   -5.253007|   -3.169049|    0.000000|    0.000000|
|         570|   -5.260964|   -3.176316|    0.000000|    0.000000|
|         571|   -5.268947|   -3.183563|    0.000000|    0.000000|
|         572|   -5.276965|   -3.190790|    0.000000|    0.000000|
|         573|   -5.285036|   -3.197996|    0.000000|    0.000000|
|         574|   -5.293160|   -3.205173|    0.000000|    0.000000|
|         575|   -5.301330|   -3.212304|    0.000000|    0.000000|
|         576|   -5.309532|   -3.219368|    0.000000|    0.000000|
|         577|   -5.317744|   -3.226342|    0.000000|    0.000000|
|         578|   -5.325942|   -3.233200|    0.000000|    0.000000|
|         579|   -5.334097|   -3.239916|    0.000000|    0.000000|
|         580|   -5.342178|   -3.246457|    0.000000|    0.000000|
|         581|   -5.350149|   -3.252801|    0.000000|    0.000000|
|         582|   -5.357980|   -3.258918|    0.000000|    0.000000|
|         583|   -5.365640|   -3.264778|    0.000000|    0.000000|
|         584|   -5.373097|   -3.270356|    0.000000|    0.000000|
|         585|   -5.380318|   -3.275625|    0.000000|    0.000000|
|         586|   -5.387271|   -3.280561|    0.000000|    0.000000|
|         587|   -5.393925|   -3.285142|    0.000000|    0.000000|
|         588|   -5.400249|   -3.289351|    0.000000|    0.000000|
|         589|   -5.406220|   -3.293165|    0.000000|    0.000000|
|         590|   -5.411806|   -3.296568|    0.000000|    0.000000|
|         591|   -5.416981|   -3.299552|    0.000000|    0.000000|
|         592|   -5.421719|   -3.302108|    0.000000|    0.000000|
|         593|   -5.426000|   -3.304231|    0.000000|    0.000000|
|         594|   -5.429796|   -3.305915|    0.000000|    0.000000|
|         595|   -5.433086|   -3.307162|    0.000000|    0.000000|
|         596|   -5.435860|   -3.307976|    0.000000|    0.000000|
|         597|   -5.438115|   -3.308364|    0.000000|    0.000000|
|         598|   -5.439852|   -3.308338|    0.000000|    0.000000|
|         599|   -5.441072|   -3.307911|    0.000000|    0.000000|
|         600|   -5.441783|   -3.307099|    0.000000|    0.000000|
|         601|   -5.441999|   -3.305916|    0.000000|    0.000000|
|         602|   -5.441730|   -3.304389|    0.000000|    0.000000|
|         603|   -5.440989|   -3.302550|    0.000000|    0.000000|
|         604|   -5.439808|   -3.300432|    0.000000|    0.000000|
|         605|   -5.438236|   -3.298028|    0.000000|    0.000000|
|         606|   -5.436250|   -3.295354|    0.000000|    0.000000|
|         607|   -5.433848|   -3.292442|    0.000000|    0.000000|
|         608|   -5.431059|   -3.289302|    0.000000|    0.000000|
|         609|   -5.427918|   -3.285960|    0.000000|    0.000000|
|         610|   -5.424455|   -3.282443|    0.000000|    0.000000|
|         611|   -5.420700|   -3.278773|    0.000000|    0.000000|
|         612|   -5.416682|   -3.274966|    0.000000|    0.000000|
|         613|   -5.412426|   -3.271039|    0.000000|    0.000000|
|         614|   -5.407956|   -3.267015|    0.000000|    0.000000|
|         615|   -5.403296|   -3.262841|    0.000000|    0.000000|
|         616|   -5.398497|   -3.258526|    0.000000|    0.000000|
|         617|   -5.393552|   -3.254206|    0.000000|    0.000000|
|         618|   -5.388468|   -3.249885|    0.000000|    0.000000|
|         619|   -5.383323|   -3.245572|    0.000000|    0.000000|
|         620|   -5.378142|   -3.241287|    0.000000|    0.000000|
|         621|   -5.372922|   -3.237010|    0.000000|    0.000000|
|         622|   -5.367667|   -3.232738|    0.000000|    0.000000|
|         623|   -5.362388|   -3.228487|    0.000000|    0.000000|
|         624|   -5.357109|   -3.224265|    0.000000|    0.000000|
|         625|   -5.351825|   -3.220080|    0.000000|    0.000000|
|         626|   -5.346535|   -3.215939|    0.000000|    0.000000|
|         627|   -5.341244|   -3.211845|    0.000000|    0.000000|
|         628|   -5.335960|   -3.207803|    0.000000|    0.000000|
|         629|   -5.330692|   -3.203818|    0.000000|    0.000000|
|         630|   -5.325445|   -3.199889|    0.000000|    0.000000|
|         631|   -5.320228|   -3.196020|    0.000000|    0.000000|
|         632|   -5.315040|   -3.192195|    0.000000|    0.000000|
|         633|   -5.309889|   -3.188415|    0.000000|    0.000000|
|         634|   -5.304786|   -3.184686|    0.000000|    0.000000|
|         635|   -5.299739|   -3.181017|    0.000000|    0.000000|
|         636|   -5.294755|   -3.177410|    0.000000|    0.000000|
|         637|   -5.289838|   -3.173868|    0.000000|    0.000000|
|         638|   -5.284994|   -3.170391|    0.000000|    0.000000|
|         639|   -5.280228|   -3.166981|    0.000000|    0.000000|
|         640|   -5.275541|   -3.163644|    0.000000|    0.000000|
|         641|   -5.270940|   -3.160379|    0.000000|    0.000000|
|         642|   -5.266427|   -3.157178|    0.000000|    0.000000|
|         643|   -5.262005|   -3.154042|    0.000000|    0.000000|
|         644|   -5.257676|   -3.150970|    0.000000|    0.000000|
|         645|   -5.253438|   -3.147959|    0.000000|    0.000000|
|         646|   -5.249287|   -3.145005|    0.000000|    0.000000|
|         647|   -5.245222|   -3.142104|    0.000000|    0.000000|
|         648|   -5.241241|   -3.139254|    0.000000|    0.000000|
|         649|   -5.237342|   -3.136453|    0.000000|    0.000000|
|         650|   -5.233523|   -3.133697|    0.000000|    0.000000|
|         651|   -5.229781|   -3.130981|    0.000000|    0.000000|
|         652|   -5.226114|   -3.128301|    0.000000|    0.000000|
|         653|   -5.222519|   -3.125656|    0.000000|    0.000000|
|         654|   -5.218993|   -3.123044|    0.000000|    0.000000|
|         655|   -5.215535|   -3.120462|    0.000000|    0.000000|
|         656|   -5.212142|   -3.117906|    0.000000|    0.000000|
|         657|   -5.208805|   -3.115369|    0.000000|    0.000000|
|         658|   -5.205520|   -3.112848|    0.000000|    0.000000|
|         659|   -5.202282|   -3.110337|    0.000000|    0.000000|
|         660|   -5.199092|   -3.107827|    0.000000|    0.000000|
|         661|   -5.195939|   -3.105322|    0.000000|    0.000000|
|         662|   -5.192832|   -3.102817|    0.000000|    0.000000|
|         663|   -5.189765|   -3.100305|    0.000000|    0.000000|
|         664|   -5.186732|   -3.097782|    0.000000|    0.000000|
|         665|   -5.183724|   -3.095237|    0.000000|    0.000000|
|         666|   -5.180734|   -3.092683|    0.000000|    0.000000|
|         667|   -5.177716|   -3.090052|    0.000000|    0.000000|
|         668|   -5.174697|   -3.087352|    0.000000|    0.000000|
|         669|   -5.171659|   -3.084575|    0.000000|    0.000000|
|         670|   -5.168586|   -3.081713|    0.000000|    0.000000|
|         671|   -5.165471|   -3.078761|    0.000000|    0.000000|
|         672|   -5.162308|   -3.075719|    0.000000|    0.000000|
|         673|   -5.159094|   -3.072584|    0.000000|    0.000000|
|         674|   -5.155848|   -3.069373|    0.000000|    0.000000|
|         675|   -5.152595|   -3.066092|    0.000000|    0.000000|
|         676|   -5.149323|   -3.062734|    0.000000|    0.000000|
|         677|   -5.146006|   -3.059298|    0.000000|    0.000000|
|         678|   -5.142633|   -3.055783|    0.000000|    0.000000|
|         679|   -5.139202|   -3.052183|    0.000000|    0.000000|
|         680|   -5.135711|   -3.048496|    0.000000|    0.000000|
|         681|   -5.132154|   -3.044719|    0.000000|    0.000000|
|         682|   -5.128529|   -3.040848|    0.000000|    0.000000|
|         683|   -5.124830|   -3.036883|    0.000000|    0.000000|
|         684|   -5.121054|   -3.032804|    0.000000|    0.000000|
|         685|   -5.117146|   -3.028603|    0.000000|    0.000000|
|         686|   -5.113078|   -3.024321|    0.000000|    0.000000|
|         687|   -5.108952|   -3.019945|    0.000000|    0.000000|
|         688|   -5.104774|   -3.015484|    0.000000|    0.000000|
|         689|   -5.100548|   -3.010937|    0.000000|    0.000000|
|         690|   -5.096287|   -3.006298|    0.000000|    0.000000|
|         691|   -5.091977|   -3.001575|    0.000000|    0.000000|
|         692|   -5.087594|   -2.996768|    0.000000|    0.000000|
|         693|   -5.083123|   -2.991878|    0.000000|    0.000000|
|         694|   -5.078558|   -2.986906|    0.000000|    0.000000|
|         695|   -5.073902|   -2.981849|    0.000000|    0.000000|
|         696|   -5.069156|   -2.976708|    0.000000|    0.000000|
|         697|   -5.064323|   -2.971479|    0.000000|    0.000000|
|         698|   -5.059404|   -2.966163|    0.000000|    0.000000|
|         699|   -5.054398|   -2.960759|    0.000000|    0.000000|
|         700|   -5.049306|   -2.955271|    0.000000|    0.000000|
|         701|   -5.044191|   -2.949723|    0.000000|    0.000000|
|         702|   -5.039134|   -2.944145|    0.000000|    0.000000|
|         703|   -5.034089|   -2.938538|    0.000000|    0.000000|
|         704|   -5.029016|   -2.932906|    0.000000|    0.000000|
|         705|   -5.023900|   -2.927256|    0.000000|    0.000000|
|         706|   -5.018745|   -2.921594|    0.000000|    0.000000|
|         707|   -5.013559|   -2.915927|    0.000000|    0.000000|
|         708|   -5.008350|   -2.910258|    0.000000|    0.000000|
|         709|   -5.003122|   -2.904591|    0.000000|    0.000000|
|         710|   -4.997879|   -2.898928|    0.000000|    0.000000|
|         711|   -4.992622|   -2.893272|    0.000000|    0.000000|
|         712|   -4.987354|   -2.887627|    0.000000|    0.000000|
|         713|   -4.982077|   -2.881996|    0.000000|    0.000000|
|         714|   -4.976793|   -2.876380|    0.000000|    0.000000|
|         715|   -4.971508|   -2.870783|    0.000000|    0.000000|
|         716|   -4.966225|   -2.865207|    0.000000|    0.000000|
|         717|   -4.960949|   -2.859654|    0.000000|    0.000000|
|         718|   -4.955682|   -2.854124|    0.000000|    0.000000|
|         719|   -4.950428|   -2.848619|    0.000000|    0.000000|
|         720|   -4.945189|   -2.843142|    0.000000|    0.000000|
|         721|   -4.939968|   -2.837692|    0.000000|    0.000000|
|         722|   -4.934770|   -2.832272|    0.000000|    0.000000|
|         723|   -4.929592|   -2.826880|    0.000000|    0.000000|
|         724|   -4.924427|   -2.821513|    0.000000|    0.000000|
|         725|   -4.919278|   -2.816171|    0.000000|    0.000000|
|         726|   -4.914149|   -2.810867|    0.000000|    0.000000|
|         727|   -4.909077|   -2.805603|    0.000000|    0.000000|
|         728|   -4.904044|   -2.800373|    0.000000|    0.000000|
|         729|   -4.899013|   -2.795176|    0.000000|    0.000000|
|         730|   -4.893988|   -2.790022|    0.000000|    0.000000|
|         731|   -4.888997|   -2.784921|    0.000000|    0.000000|
|         732|   -4.884064|   -2.779876|    0.000000|    0.000000|
|         733|   -4.879200|   -2.774888|    0.000000|    0.000000|
|         734|   -4.874414|   -2.769936|    0.000000|    0.000000|
|         735|   -4.869578|   -2.765036|    0.000000|    0.000000|
|         736|   -4.864820|   -2.760218|    0.000000|    0.000000|
|         737|   -4.860205|   -2.755478|    0.000000|    0.000000|
|         738|   -4.855697|   -2.750815|    0.000000|    0.000000|
|         739|   -4.851291|   -2.746227|    0.000000|    0.000000|
|         740|   -4.846973|   -2.741713|    0.000000|    0.000000|
|         741|   -4.842736|   -2.737275|    0.000000|    0.000000|
|         742|   -4.838577|   -2.732914|    0.000000|    0.000000|
|         743|   -4.834493|   -2.728629|    0.000000|    0.000000|
|         744|   -4.830486|   -2.724422|    0.000000|    0.000000|
|         745|   -4.826556|   -2.720292|    0.000000|    0.000000|
|         746|   -4.822704|   -2.716238|    0.000000|    0.000000|
|         747|   -4.818929|   -2.712259|    0.000000|    0.000000|
|         748|   -4.815230|   -2.708356|    0.000000|    0.000000|
|         749|   -4.811608|   -2.704526|    0.000000|    0.000000|
|         750|   -4.808060|   -2.700797|    0.000000|    0.000000|
|         751|   -4.804611|   -2.697118|    0.000000|    0.000000|
|         752|   -4.801220|   -2.693493|    0.000000|    0.000000|
|         753|   -4.797882|   -2.689927|    0.000000|    0.000000|
|         754|   -4.794605|   -2.686424|    0.000000|    0.000000|
|         755|   -4.791391|   -2.682983|    0.000000|    0.000000|
|         756|   -4.788243|   -2.679605|    0.000000|    0.000000|
|         757|   -4.785160|   -2.676289|    0.000000|    0.000000|
|         758|   -4.782143|   -2.673036|    0.000000|    0.000000|
|         759|   -4.779190|   -2.669844|    0.000000|    0.000000|
|         760|   -4.776301|   -2.666717|    0.000000|    0.000000|
|         761|   -4.773507|   -2.663672|    0.000000|    0.000000|
|         762|   -4.770879|   -2.660739|    0.000000|    0.000000|
|         763|   -4.768423|   -2.657918|    0.000000|    0.000000|
|         764|   -4.766106|   -2.655204|    0.000000|    0.000000|
|         765|   -4.763917|   -2.652598|    0.000000|    0.000000|
|         766|   -4.761856|   -2.650100|    0.000000|    0.000000|
|         767|   -4.759915|   -2.647708|    0.000000|    0.000000|
|         768|   -4.758082|   -2.645419|    0.000000|    0.000000|
|         769|   -4.756347|   -2.643229|    0.000000|    0.000000|
|         770|   -4.754699|   -2.641133|    0.000000|    0.000000|
|         771|   -4.753127|   -2.639125|    0.000000|    0.000000|
|         772|   -4.751620|   -2.637195|    0.000000|    0.000000|
|         773|   -4.750169|   -2.635334|    0.000000|    0.000000|
|         774|   -4.748768|   -2.633534|    0.000000|    0.000000|
|         775|   -4.747410|   -2.631786|    0.000000|    0.000000|
|         776|   -4.746088|   -2.630080|    0.000000|    0.000000|
|         777|   -4.744798|   -2.628410|    0.000000|    0.000000|
|         778|   -4.743533|   -2.626768|    0.000000|    0.000000|
|         779|   -4.742286|   -2.625147|    0.000000|    0.000000|
|         780|   -4.741053|   -2.623544|    0.000000|    0.000000|
|         781|   -4.739829|   -2.621955|    0.000000|    0.000000|
|         782|   -4.738614|   -2.620377|    0.000000|    0.000000|
|         783|   -4.737354|   -2.618823|    0.000000|    0.000000|
|         784|   -4.736094|   -2.617296|    0.000000|    0.000000|
|         785|   -4.734882|   -2.615798|    0.000000|    0.000000|
|         786|   -4.733715|   -2.614334|    0.000000|    0.000000|
|         787|   -4.732592|   -2.612906|    0.000000|    0.000000|
|         788|   -4.731515|   -2.611514|    0.000000|    0.000000|
|         789|   -4.730478|   -2.610157|    0.000000|    0.000000|
|         790|   -4.729476|   -2.608833|    0.000000|    0.000000|
|         791|   -4.728506|   -2.607542|    0.000000|    0.000000|
|         792|   -4.727565|   -2.606285|    0.000000|    0.000000|
|         793|   -4.726678|   -2.605063|    0.000000|    0.000000|
|         794|   -4.725818|   -2.603869|    0.000000|    0.000000|
|         795|   -4.724972|   -2.602705|    0.000000|    0.000000|
|         796|   -4.724142|   -2.601574|    0.000000|    0.000000|
|         797|   -4.723340|   -2.600478|    0.000000|    0.000000|
|         798|   -4.722568|   -2.599420|    0.000000|    0.000000|
|         799|   -4.721831|   -2.598399|    0.000000|    0.000000|
|         800|   -4.721129|   -2.597417|    0.000000|    0.000000|
|         801|   -4.720465|   -2.596474|    0.000000|    0.000000|
|         802|   -4.719841|   -2.595572|    0.000000|    0.000000|
|         803|   -4.719256|   -2.594711|    0.000000|    0.000000|
|         804|   -4.718757|   -2.593902|    0.000000|    0.000000|
|         805|   -4.718295|   -2.593136|    0.000000|    0.000000|
|         806|   -4.717858|   -2.592403|    0.000000|    0.000000|
|         807|   -4.717442|   -2.591695|    0.000000|    0.000000|
|         808|   -4.717045|   -2.591009|    0.000000|    0.000000|
|         809|   -4.716662|   -2.590342|    0.000000|    0.000000|
|         810|   -4.716288|   -2.589691|    0.000000|    0.000000|
|         811|   -4.715918|   -2.589050|    0.000000|    0.000000|
|         812|   -4.715547|   -2.588416|    0.000000|    0.000000|
|         813|   -4.715171|   -2.587785|    0.000000|    0.000000|
|         814|   -4.714789|   -2.587154|    0.000000|    0.000000|
|         815|   -4.714399|   -2.586520|    0.000000|    0.000000|
|         816|   -4.714001|   -2.585880|    0.000000|    0.000000|
|         817|   -4.713594|   -2.585232|    0.000000|    0.000000|
|         818|   -4.713176|   -2.584577|    0.000000|    0.000000|
|         819|   -4.712747|   -2.583916|    0.000000|    0.000000|
|         820|   -4.712302|   -2.583245|    0.000000|    0.000000|
|         821|   -4.711839|   -2.582560|    0.000000|    0.000000|
|         822|   -4.711385|   -2.581881|    0.000000|    0.000000|
|         823|   -4.710937|   -2.581212|    0.000000|    0.000000|
|         824|   -4.710496|   -2.580530|    0.000000|    0.000000|
|         825|   -4.710032|   -2.579825|    0.000000|    0.000000|
|         826|   -4.709527|   -2.579090|    0.000000|    0.000000|
|         827|   -4.708961|   -2.578326|    0.000000|    0.000000|
|         828|   -4.708407|   -2.577508|    0.000000|    0.000000|
|         829|   -4.707831|   -2.576631|    0.000000|    0.000000|
|         830|   -4.707123|   -2.575692|    0.000000|    0.000000|
|         831|   -4.706265|   -2.574684|    0.000000|    0.000000|
|         832|   -4.705275|   -2.573610|    0.000000|    0.000000|
|         833|   -4.704166|   -2.572469|    0.000000|    0.000000|
|         834|   -4.702947|   -2.571265|    0.000000|    0.000000|
|         835|   -4.701623|   -2.570022|    0.000000|    0.000000|
|         836|   -4.700198|   -2.568739|    0.000000|    0.000000|
|         837|   -4.698688|   -2.567419|    0.000000|    0.000000|
|         838|   -4.697098|   -2.566058|    0.000000|    0.000000|
|         839|   -4.695422|   -2.564643|    0.000000|    0.000000|
|         840|   -4.693662|   -2.563162|    0.000000|    0.000000|
|         841|   -4.691811|   -2.561633|    0.000000|    0.000000|
|         842|   -4.689846|   -2.560041|    0.000000|    0.000000|
|         843|   -4.687755|   -2.558381|    0.000000|    0.000000|
|         844|   -4.685532|   -2.556642|    0.000000|    0.000000|
|         845|   -4.683176|   -2.554818|    0.000000|    0.000000|
|         846|   -4.680686|   -2.552895|    0.000000|    0.000000|
|         847|   -4.678072|   -2.550885|    0.000000|    0.000000|
|         848|   -4.675325|   -2.548785|    0.000000|    0.000000|
|         849|   -4.672435|   -2.546595|    0.000000|    0.000000|
|         850|   -4.669405|   -2.544325|    0.000000|    0.000000|
|         851|   -4.666284|   -2.542059|    0.000000|    0.000000|
|         852|   -4.663075|   -2.539753|    0.000000|    0.000000|
|         853|   -4.659795|   -2.537374|    0.000000|    0.000000|
|         854|   -4.656420|   -2.534917|    0.000000|    0.000000|
|         855|   -4.652916|   -2.532383|    0.000000|    0.000000|
|         856|   -4.649284|   -2.529767|    0.000000|    0.000000|
|         857|   -4.645544|   -2.527067|    0.000000|    0.000000|
|         858|   -4.641719|   -2.523967|    0.000000|    0.000000|
|         859|   -4.637447|   -2.520297|    0.000000|    0.000000|
|         860|   -4.632513|   -2.516253|    0.000000|    0.000000|
|         861|   -4.627126|   -2.511955|    0.000000|    0.000000|
|         862|   -4.621481|   -2.507466|    0.000000|    0.000000|
|         863|   -4.615658|   -2.502839|    0.000000|    0.000000|
|         864|   -4.609708|   -2.498130|    0.000000|    0.000000|
|         865|   -4.603699|   -2.493376|    0.000000|    0.000000|
|         866|   -4.597531|   -2.488573|    0.000000|    0.000000|
|         867|   -4.591428|   -2.483805|    0.000000|    0.000000|
|         868|   -4.585530|   -2.479126|    0.000000|    0.000000|
|         869|   -4.579812|   -2.474539|    0.000000|    0.000000|
|         870|   -4.574170|   -2.470053|    0.000000|    0.000000|
|         871|   -4.568340|   -2.465659|    0.000000|    0.000000|
|         872|   -4.562515|   -2.461440|    0.000000|    0.000000|
|         873|   -4.556894|   -2.457437|    0.000000|    0.000000|
|         874|   -4.551520|   -2.453642|    0.000000|    0.000000|
|         875|   -4.546439|   -2.450084|    0.000000|    0.000000|
|         876|   -4.541631|   -2.446769|    0.000000|    0.000000|
|         877|   -4.537077|   -2.443684|    0.000000|    0.000000|
|         878|   -4.532777|   -2.440818|    0.000000|    0.000000|
|         879|   -4.528729|   -2.438145|    0.000000|    0.000000|
|         880|   -4.524921|   -2.435654|    0.000000|    0.000000|
|         881|   -4.521456|   -2.433397|    0.000000|    0.000000|
|         882|   -4.518393|   -2.431367|    0.000000|    0.000000|
|         883|   -4.515648|   -2.429452|    0.000000|    0.000000|
|         884|   -4.513131|   -2.427646|    0.000000|    0.000000|
|         885|   -4.510784|   -2.425928|    0.000000|    0.000000|
|         886|   -4.508609|   -2.424275|    0.000000|    0.000000|
|         887|   -4.506621|   -2.422668|    0.000000|    0.000000|
|         888|   -4.504847|   -2.421083|    0.000000|    0.000000|
|         889|   -4.503253|   -2.419490|    0.000000|    0.000000|
|         890|   -4.501476|   -2.417656|    0.000000|    0.000000|
|         891|   -4.499446|   -2.415596|    0.000000|    0.000000|
|         892|   -4.497465|   -2.413118|    0.000000|    0.000000|
|         893|   -4.495408|   -2.410235|    0.000000|    0.000000|
|         894|   -4.493398|   -2.406908|    0.000000|    0.000000|
|         895|   -4.491509|   -2.403004|    0.000000|    0.000000|
|         896|   -4.489467|   -2.398282|    0.000000|    0.000000|
|         897|   -4.486964|   -2.392906|    0.000000|    0.000000|
|         898|   -4.484273|   -2.386987|    0.000000|    0.000000|
|         899|   -4.481833|   -2.380552|    0.000000|    0.000000|
|         900|   -4.479708|   -2.373722|    0.000000|    0.000000|
|         901|   -4.477692|   -2.366428|    0.000000|    0.000000|
|         902|   -4.475811|   -2.358796|    0.000000|    0.000000|
|         903|   -4.474282|   -2.351057|    0.000000|    0.000000|
|         904|   -4.473149|   -2.343286|    0.000000|    0.000000|
|         905|   -4.471733|   -2.335774|    0.000000|    0.000000|
|         906|   -4.470739|   -2.328652|    0.000000|    0.000000|
|         907|   -4.470505|   -2.322378|    0.000000|    0.000000|
|         908|   -4.470646|   -2.315978|    0.000000|    0.000000|
|         909|   -4.470841|   -2.309956|    0.000000|    0.000000|
|         910|   -4.471412|   -2.304623|    0.000000|    0.000000|
|         911|   -4.472221|   -2.299991|    0.000000|    0.000000|
|         912|   -4.473236|   -2.296270|    0.000000|    0.000000|
|         913|   -4.474984|   -2.293448|    0.000000|    0.000000|
|         914|   -4.477961|   -2.291662|    0.000000|    0.000000|
|         915|   -4.482425|   -2.291075|    0.000000|    0.000000|
|         916|   -4.487945|   -2.291826|    0.000000|    0.000000|
|         917|   -4.494228|   -2.294014|    0.000000|    0.000000|
|         918|   -4.500832|   -2.297718|    0.000000|    0.000000|
|         919|   -4.507533|   -2.302956|    0.000000|    0.000000|
|         920|   -4.514243|   -2.309710|    0.000000|    0.000000|
|         921|   -4.520939|   -2.317841|    0.000000|    0.000000|
|         922|   -4.527564|   -2.327171|    0.000000|    0.000000|
|         923|   -4.534099|   -2.337504|    0.000000|    0.000000|
|         924|   -4.540509|   -2.348637|    0.000000|    0.000000|
|         925|   -4.546711|   -2.360350|    0.000000|    0.000000|
|         926|   -4.552664|   -2.372402|    0.000000|    0.000000|
|         927|   -4.558421|   -2.384536|    0.000000|    0.000000|
|         928|   -4.563975|   -2.396536|    0.000000|    0.000000|
|         929|   -4.569300|   -2.408204|    0.000000|    0.000000|
|         930|   -4.574384|   -2.419380|    0.000000|    0.000000|
|         931|   -4.579193|   -2.429949|    0.000000|    0.000000|
|         932|   -4.583714|   -2.439824|    0.000000|    0.000000|
|         933|   -4.587949|   -2.448955|    0.000000|    0.000000|
|         934|   -4.591891|   -2.457327|    0.000000|    0.000000|
|         935|   -4.595543|   -2.464924|    0.000000|    0.000000|
|         936|   -4.598880|   -2.471795|    0.000000|    0.000000|
|         937|   -4.601955|   -2.477989|    0.000000|    0.000000|
|         938|   -4.604790|   -2.483554|    0.000000|    0.000000|
|         939|   -4.607400|   -2.488543|    0.000000|    0.000000|
|         940|   -4.609797|   -2.493013|    0.000000|    0.000000|
|         941|   -4.611987|   -2.497012|    0.000000|    0.000000|
|         942|   -4.613983|   -2.500587|    0.000000|    0.000000|
|         943|   -4.615797|   -2.503790|    0.000000|    0.000000|
|         944|   -4.617434|   -2.506658|    0.000000|    0.000000|
|         945|   -4.618897|   -2.509223|    0.000000|    0.000000|
|         946|   -4.620193|   -2.511511|    0.000000|    0.000000|
|         947|   -4.621329|   -2.513547|    0.000000|    0.000000|
|         948|   -4.622312|   -2.515353|    0.000000|    0.000000|
|         949|   -4.623150|   -2.516945|    0.000000|    0.000000|
|         950|   -4.623854|   -2.518342|    0.000000|    0.000000|
|         951|   -4.624434|   -2.519556|    0.000000|    0.000000|
|         952|   -4.624900|   -2.520601|    0.000000|    0.000000|
|         953|   -4.625263|   -2.521488|    0.000000|    0.000000|
|         954|   -4.625538|   -2.522234|    0.000000|    0.000000|
|         955|   -4.625730|   -2.522845|    0.000000|    0.000000|
|         956|   -4.625849|   -2.523333|    0.000000|    0.000000|
|         957|   -4.625909|   -2.523711|    0.000000|    0.000000|
|         958|   -4.625923|   -2.523990|    0.000000|    0.000000|
|         959|   -4.625903|   -2.524180|    0.000000|    0.000000|
|         960|   -4.625873|   -2.524309|    0.000000|    0.000000|
|         961|   -4.625828|   -2.524377|    0.000000|    0.000000|
|         962|   -4.625773|   -2.524394|    0.000000|    0.000000|
|         963|   -4.625720|   -2.524367|    0.000000|    0.000000|
|         964|   -4.625677|   -2.524308|    0.000000|    0.000000|
|         965|   -4.625653|   -2.524225|    0.000000|    0.000000|
|         966|   -4.625655|   -2.524128|    0.000000|    0.000000|
|         967|   -4.625691|   -2.524025|    0.000000|    0.000000|
|         968|   -4.625763|   -2.523924|    0.000000|    0.000000|
|         969|   -4.625876|   -2.523832|    0.000000|    0.000000|
|         970|   -4.626039|   -2.523760|    0.000000|    0.000000|
|         971|   -4.626251|   -2.523717|    0.000000|    0.000000|
|         972|   -4.626517|   -2.523710|    0.000000|    0.000000|
|         973|   -4.626842|   -2.523742|    0.000000|    0.000000|
|         974|   -4.627232|   -2.523819|    0.000000|    0.000000|
|         975|   -4.627697|   -2.523950|    0.000000|    0.000000|
|         976|   -4.628247|   -2.524139|    0.000000|    0.000000|
|         977|   -4.628888|   -2.524387|    0.000000|    0.000000|
|         978|   -4.629621|   -2.524700|    0.000000|    0.000000|
|         979|   -4.630452|   -2.525083|    0.000000|    0.000000|
|         980|   -4.631383|   -2.525539|    0.000000|    0.000000|
|         981|   -4.632419|   -2.526070|    0.000000|    0.000000|
|         982|   -4.633560|   -2.526682|    0.000000|    0.000000|
|         983|   -4.634806|   -2.527379|    0.000000|    0.000000|
|         984|   -4.636161|   -2.528167|    0.000000|    0.000000|
|         985|   -4.637629|   -2.529048|    0.000000|    0.000000|
|         986|   -4.639213|   -2.530029|    0.000000|    0.000000|
|         987|   -4.640918|   -2.531111|    0.000000|    0.000000|
|         988|   -4.642749|   -2.532296|    0.000000|    0.000000|
|         989|   -4.644709|   -2.533589|    0.000000|    0.000000|
|         990|   -4.646803|   -2.534990|    0.000000|    0.000000|
|         991|   -4.649034|   -2.536502|    0.000000|    0.000000|
|         992|   -4.651406|   -2.538125|    0.000000|    0.000000|
|         993|   -4.653920|   -2.539861|    0.000000|    0.000000|
|         994|   -4.656582|   -2.541712|    0.000000|    0.000000|
|         995|   -4.659393|   -2.543681|    0.000000|    0.000000|
|         996|   -4.662354|   -2.545768|    0.000000|    0.000000|
|         997|   -4.665465|   -2.547973|    0.000000|    0.000000|
|         998|   -4.668722|   -2.550295|    0.000000|    0.000000|
[...]
|        9726|   -4.774494|   -2.734534|    0.000000|    0.000000|
|        9727|   -4.773999|   -2.732562|    0.000000|    0.000000|
|        9728|   -4.773514|   -2.730533|    0.000000|    0.000000|
|        9729|   -4.773019|   -2.728432|    0.000000|    0.000000|
|        9730|   -4.772497|   -2.726245|    0.000000|    0.000000|
|        9731|   -4.771931|   -2.723958|    0.000000|    0.000000|
|        9732|   -4.771306|   -2.721557|    0.000000|    0.000000|
|        9733|   -4.770604|   -2.719027|    0.000000|    0.000000|
|        9734|   -4.769806|   -2.716348|    0.000000|    0.000000|
|        9735|   -4.768888|   -2.713502|    0.000000|    0.000000|
|        9736|   -4.767831|   -2.710468|    0.000000|    0.000000|
|        9737|   -4.766612|   -2.707244|    0.000000|    0.000000|
|        9738|   -4.765202|   -2.703797|    0.000000|    0.000000|
|        9739|   -4.763558|   -2.700109|    0.000000|    0.000000|
|        9740|   -4.761647|   -2.696152|    0.000000|    0.000000|
|        9741|   -4.759451|   -2.691915|    0.000000|    0.000000|
|        9742|   -4.756910|   -2.687358|    0.000000|    0.000000|
|        9743|   -4.754031|   -2.682430|    0.000000|    0.000000|
|        9744|   -4.750798|   -2.677140|    0.000000|    0.000000|
|        9745|   -4.747198|   -2.671491|    0.000000|    0.000000|
|        9746|   -4.743227|   -2.665481|    0.000000|    0.000000|
|        9747|   -4.738874|   -2.659108|    0.000000|    0.000000|
|        9748|   -4.734076|   -2.652360|    0.000000|    0.000000|
|        9749|   -4.728822|   -2.645230|    0.000000|    0.000000|
|        9750|   -4.723128|   -2.637711|    0.000000|    0.000000|
|        9751|   -4.716994|   -2.629800|    0.000000|    0.000000|
|        9752|   -4.710463|   -2.621496|    0.000000|    0.000000|
|        9753|   -4.703570|   -2.612886|    0.000000|    0.000000|
|        9754|   -4.696200|   -2.603933|    0.000000|    0.000000|
|        9755|   -4.688341|   -2.594618|    0.000000|    0.000000|
|        9756|   -4.680068|   -2.584986|    0.000000|    0.000000|
|        9757|   -4.671408|   -2.575052|    0.000000|    0.000000|
|        9758|   -4.662390|   -2.564834|    0.000000|    0.000000|
|        9759|   -4.653041|   -2.554360|    0.000000|    0.000000|
|        9760|   -4.643386|   -2.543648|    0.000000|    0.000000|
|        9761|   -4.633445|   -2.532731|    0.000000|    0.000000|
|        9762|   -4.623272|   -2.521637|    0.000000|    0.000000|
|        9763|   -4.612914|   -2.510413|    0.000000|    0.000000|
|        9764|   -4.602489|   -2.499108|    0.000000|    0.000000|
|        9765|   -4.592017|   -2.487744|    0.000000|    0.000000|
|        9766|   -4.581516|   -2.476350|    0.000000|    0.000000|
|        9767|   -4.571026|   -2.464956|    0.000000|    0.000000|
|        9768|   -4.560568|   -2.453576|    0.000000|    0.000000|
|        9769|   -4.550173|   -2.442261|    0.000000|    0.000000|
|        9770|   -4.539778|   -2.431012|    0.000000|    0.000000|
|        9771|   -4.529488|   -2.419891|    0.000000|    0.000000|
|        9772|   -4.519356|   -2.408922|    0.000000|    0.000000|
|        9773|   -4.509418|   -2.398135|    0.000000|    0.000000|
|        9774|   -4.499745|   -2.387532|    0.000000|    0.000000|
|        9775|   -4.490329|   -2.377142|    0.000000|    0.000000|
|        9776|   -4.481171|   -2.366990|    0.000000|    0.000000|
|        9777|   -4.472315|   -2.357096|    0.000000|    0.000000|
|        9778|   -4.463747|   -2.347466|    0.000000|    0.000000|
|        9779|   -4.455472|   -2.338109|    0.000000|    0.000000|
|        9780|   -4.447525|   -2.329037|    0.000000|    0.000000|
|        9781|   -4.439904|   -2.320285|    0.000000|    0.000000|
|        9782|   -4.432617|   -2.311816|    0.000000|    0.000000|
|        9783|   -4.425560|   -2.303632|    0.000000|    0.000000|
|        9784|   -4.418794|   -2.295743|    0.000000|    0.000000|
|        9785|   -4.412344|   -2.288149|    0.000000|    0.000000|
|        9786|   -4.406203|   -2.280866|    0.000000|    0.000000|
|        9787|   -4.400359|   -2.273899|    0.000000|    0.000000|
|        9788|   -4.394798|   -2.267249|    0.000000|    0.000000|
|        9789|   -4.389496|   -2.260916|    0.000000|    0.000000|
|        9790|   -4.384441|   -2.254896|    0.000000|    0.000000|
|        9791|   -4.379596|   -2.249165|    0.000000|    0.000000|
|        9792|   -4.374916|   -2.243710|    0.000000|    0.000000|
|        9793|   -4.370384|   -2.238522|    0.000000|    0.000000|
|        9794|   -4.366004|   -2.233635|    0.000000|    0.000000|
|        9795|   -4.361773|   -2.229036|    0.000000|    0.000000|
|        9796|   -4.357666|   -2.224710|    0.000000|    0.000000|
|        9797|   -4.353676|   -2.220645|    0.000000|    0.000000|
|        9798|   -4.349749|   -2.216827|    0.000000|    0.000000|
|        9799|   -4.345849|   -2.213243|    0.000000|    0.000000|
|        9800|   -4.341964|   -2.209898|    0.000000|    0.000000|
|        9801|   -4.338065|   -2.206707|    0.000000|    0.000000|
|        9802|   -4.334086|   -2.203666|    0.000000|    0.000000|
|        9803|   -4.330053|   -2.200776|    0.000000|    0.000000|
|        9804|   -4.325976|   -2.198004|    0.000000|    0.000000|
|        9805|   -4.321836|   -2.195270|    0.000000|    0.000000|
|        9806|   -4.317597|   -2.192561|    0.000000|    0.000000|
|        9807|   -4.313250|   -2.189851|    0.000000|    0.000000|
|        9808|   -4.308770|   -2.187153|    0.000000|    0.000000|
|        9809|   -4.304307|   -2.184379|    0.000000|    0.000000|
|        9810|   -4.299803|   -2.181528|    0.000000|    0.000000|
|        9811|   -4.295288|   -2.178606|    0.000000|    0.000000|
|        9812|   -4.290829|   -2.175604|    0.000000|    0.000000|
|        9813|   -4.286499|   -2.172526|    0.000000|    0.000000|
|        9814|   -4.282353|   -2.169357|    0.000000|    0.000000|
|        9815|   -4.278440|   -2.166124|    0.000000|    0.000000|
|        9816|   -4.274826|   -2.162875|    0.000000|    0.000000|
|        9817|   -4.271581|   -2.159715|    0.000000|    0.000000|
|        9818|   -4.268821|   -2.156677|    0.000000|    0.000000|
|        9819|   -4.266594|   -2.153777|    0.000000|    0.000000|
|        9820|   -4.264933|   -2.151112|    0.000000|    0.000000|
|        9821|   -4.263872|   -2.148759|    0.000000|    0.000000|
|        9822|   -4.263461|   -2.146760|    0.000000|    0.000000|
|        9823|   -4.263750|   -2.145184|    0.000000|    0.000000|
|        9824|   -4.264827|   -2.144151|    0.000000|    0.000000|
|        9825|   -4.266761|   -2.143764|    0.000000|    0.000000|
|        9826|   -4.269585|   -2.144077|    0.000000|    0.000000|
|        9827|   -4.273335|   -2.145164|    0.000000|    0.000000|
|        9828|   -4.278072|   -2.147102|    0.000000|    0.000000|
|        9829|   -4.283810|   -2.149942|    0.000000|    0.000000|
|        9830|   -4.290545|   -2.153686|    0.000000|    0.000000|
|        9831|   -4.298307|   -2.158405|    0.000000|    0.000000|
|        9832|   -4.307131|   -2.164129|    0.000000|    0.000000|
|        9833|   -4.317017|   -2.170870|    0.000000|    0.000000|
|        9834|   -4.327956|   -2.178628|    0.000000|    0.000000|
|        9835|   -4.339923|   -2.187378|    0.000000|    0.000000|
|        9836|   -4.352876|   -2.197092|    0.000000|    0.000000|
|        9837|   -4.366763|   -2.207730|    0.000000|    0.000000|
|        9838|   -4.381533|   -2.219263|    0.000000|    0.000000|
|        9839|   -4.397131|   -2.231654|    0.000000|    0.000000|
|        9840|   -4.413471|   -2.244816|    0.000000|    0.000000|
|        9841|   -4.430472|   -2.258672|    0.000000|    0.000000|
|        9842|   -4.448050|   -2.273147|    0.000000|    0.000000|
|        9843|   -4.466119|   -2.288160|    0.000000|    0.000000|
|        9844|   -4.484593|   -2.303635|    0.000000|    0.000000|
|        9845|   -4.503386|   -2.319489|    0.000000|    0.000000|
|        9846|   -4.522371|   -2.335622|    0.000000|    0.000000|
|        9847|   -4.541465|   -2.351963|    0.000000|    0.000000|
|        9848|   -4.560620|   -2.368456|    0.000000|    0.000000|
|        9849|   -4.579778|   -2.385044|    0.000000|    0.000000|
|        9850|   -4.598774|   -2.401675|    0.000000|    0.000000|
|        9851|   -4.617620|   -2.418275|    0.000000|    0.000000|
|        9852|   -4.636298|   -2.434803|    0.000000|    0.000000|
|        9853|   -4.654786|   -2.451235|    0.000000|    0.000000|
|        9854|   -4.673076|   -2.467552|    0.000000|    0.000000|
|        9855|   -4.691161|   -2.483738|    0.000000|    0.000000|
|        9856|   -4.709041|   -2.499784|    0.000000|    0.000000|
|        9857|   -4.726714|   -2.515681|    0.000000|    0.000000|
|        9858|   -4.744184|   -2.531423|    0.000000|    0.000000|
|        9859|   -4.761463|   -2.547012|    0.000000|    0.000000|
|        9860|   -4.778566|   -2.562451|    0.000000|    0.000000|
|        9861|   -4.795509|   -2.577745|    0.000000|    0.000000|
|        9862|   -4.812308|   -2.592899|    0.000000|    0.000000|
|        9863|   -4.828980|   -2.607919|    0.000000|    0.000000|
|        9864|   -4.845540|   -2.622813|    0.000000|    0.000000|
|        9865|   -4.862007|   -2.637589|    0.000000|    0.000000|
|        9866|   -4.878399|   -2.652256|    0.000000|    0.000000|
|        9867|   -4.894727|   -2.666823|    0.000000|    0.000000|
|        9868|   -4.910994|   -2.681296|    0.000000|    0.000000|
|        9869|   -4.927222|   -2.695688|    0.000000|    0.000000|
|        9870|   -4.943419|   -2.710007|    0.000000|    0.000000|
|        9871|   -4.959585|   -2.724257|    0.000000|    0.000000|
|        9872|   -4.975736|   -2.738451|    0.000000|    0.000000|
|        9873|   -4.991864|   -2.752595|    0.000000|    0.000000|
|        9874|   -5.007974|   -2.766699|    0.000000|    0.000000|
|        9875|   -5.024066|   -2.780772|    0.000000|    0.000000|
|        9876|   -5.040122|   -2.794817|    0.000000|    0.000000|
|        9877|   -5.056126|   -2.808841|    0.000000|    0.000000|
|        9878|   -5.072053|   -2.822848|    0.000000|    0.000000|
|        9879|   -5.087889|   -2.836843|    0.000000|    0.000000|
|        9880|   -5.103615|   -2.850831|    0.000000|    0.000000|
|        9881|   -5.119182|   -2.864813|    0.000000|    0.000000|
|        9882|   -5.134534|   -2.878789|    0.000000|    0.000000|
|        9883|   -5.149638|   -2.892771|    0.000000|    0.000000|
|        9884|   -5.164435|   -2.906754|    0.000000|    0.000000|
|        9885|   -5.178885|   -2.920724|    0.000000|    0.000000|
|        9886|   -5.192899|   -2.934678|    0.000000|    0.000000|
|        9887|   -5.206381|   -2.948605|    0.000000|    0.000000|
|        9888|   -5.219267|   -2.962493|    0.000000|    0.000000|
|        9889|   -5.231482|   -2.976341|    0.000000|    0.000000|
|        9890|   -5.242975|   -2.990134|    0.000000|    0.000000|
|        9891|   -5.253685|   -3.003843|    0.000000|    0.000000|
|        9892|   -5.263534|   -3.017452|    0.000000|    0.000000|
|        9893|   -5.272451|   -3.030930|    0.000000|    0.000000|
|        9894|   -5.280394|   -3.044250|    0.000000|    0.000000|
|        9895|   -5.287295|   -3.057383|    0.000000|    0.000000|
|        9896|   -5.293161|   -3.070295|    0.000000|    0.000000|
|        9897|   -5.298011|   -3.082953|    0.000000|    0.000000|
|        9898|   -5.301843|   -3.095317|    0.000000|    0.000000|
|        9899|   -5.304688|   -3.107349|    0.000000|    0.000000|
|        9900|   -5.306578|   -3.119004|    0.000000|    0.000000|
|        9901|   -5.307609|   -3.130253|    0.000000|    0.000000|
|        9902|   -5.307875|   -3.141064|    0.000000|    0.000000|
|        9903|   -5.307424|   -3.151396|    0.000000|    0.000000|
|        9904|   -5.306261|   -3.161194|    0.000000|    0.000000|
|        9905|   -5.304483|   -3.170417|    0.000000|    0.000000|
|        9906|   -5.302237|   -3.179026|    0.000000|    0.000000|
|        9907|   -5.299617|   -3.187036|    0.000000|    0.000000|
|        9908|   -5.296602|   -3.194363|    0.000000|    0.000000|
|        9909|   -5.293278|   -3.201003|    0.000000|    0.000000|
|        9910|   -5.289729|   -3.206945|    0.000000|    0.000000|
|        9911|   -5.286030|   -3.212195|    0.000000|    0.000000|
|        9912|   -5.282297|   -3.216775|    0.000000|    0.000000|
|        9913|   -5.278599|   -3.220690|    0.000000|    0.000000|
|        9914|   -5.274916|   -3.223947|    0.000000|    0.000000|
|        9915|   -5.271267|   -3.226576|    0.000000|    0.000000|
|        9916|   -5.267684|   -3.228623|    0.000000|    0.000000|
|        9917|   -5.264197|   -3.230123|    0.000000|    0.000000|
|        9918|   -5.260839|   -3.231096|    0.000000|    0.000000|
|        9919|   -5.257706|   -3.231687|    0.000000|    0.000000|
|        9920|   -5.254827|   -3.232173|    0.000000|    0.000000|
|        9921|   -5.252331|   -3.232237|    0.000000|    0.000000|
|        9922|   -5.250042|   -3.231906|    0.000000|    0.000000|
|        9923|   -5.247951|   -3.231309|    0.000000|    0.000000|
|        9924|   -5.246076|   -3.230514|    0.000000|    0.000000|
|        9925|   -5.244434|   -3.229562|    0.000000|    0.000000|
|        9926|   -5.243009|   -3.228474|    0.000000|    0.000000|
|        9927|   -5.241833|   -3.227302|    0.000000|    0.000000|
|        9928|   -5.240841|   -3.226092|    0.000000|    0.000000|
|        9929|   -5.240135|   -3.224849|    0.000000|    0.000000|
|        9930|   -5.239670|   -3.223581|    0.000000|    0.000000|
|        9931|   -5.239436|   -3.222325|    0.000000|    0.000000|
|        9932|   -5.239442|   -3.221155|    0.000000|    0.000000|
|        9933|   -5.239641|   -3.220100|    0.000000|    0.000000|
|        9934|   -5.240065|   -3.219188|    0.000000|    0.000000|
|        9935|   -5.240760|   -3.218403|    0.000000|    0.000000|
|        9936|   -5.241693|   -3.217747|    0.000000|    0.000000|
|        9937|   -5.242859|   -3.217241|    0.000000|    0.000000|
|        9938|   -5.244274|   -3.216906|    0.000000|    0.000000|
|        9939|   -5.245910|   -3.216715|    0.000000|    0.000000|
|        9940|   -5.247678|   -3.216631|    0.000000|    0.000000|
|        9941|   -5.249604|   -3.216658|    0.000000|    0.000000|
|        9942|   -5.251679|   -3.216786|    0.000000|    0.000000|
|        9943|   -5.253889|   -3.217025|    0.000000|    0.000000|
|        9944|   -5.256237|   -3.217384|    0.000000|    0.000000|
|        9945|   -5.258736|   -3.217869|    0.000000|    0.000000|
|        9946|   -5.261378|   -3.218467|    0.000000|    0.000000|
|        9947|   -5.264158|   -3.219189|    0.000000|    0.000000|
|        9948|   -5.267070|   -3.220054|    0.000000|    0.000000|
|        9949|   -5.270127|   -3.221129|    0.000000|    0.000000|
|        9950|   -5.273404|   -3.222407|    0.000000|    0.000000|
|        9951|   -5.276861|   -3.223816|    0.000000|    0.000000|
|        9952|   -5.280413|   -3.225429|    0.000000|    0.000000|
|        9953|   -5.284076|   -3.227172|    0.000000|    0.000000|
|        9954|   -5.287886|   -3.229034|    0.000000|    0.000000|
|        9955|   -5.291743|   -3.230959|    0.000000|    0.000000|
|        9956|   -5.295637|   -3.232935|    0.000000|    0.000000|
|        9957|   -5.299557|   -3.234936|    0.000000|    0.000000|
|        9958|   -5.303473|   -3.236945|    0.000000|    0.000000|
|        9959|   -5.307482|   -3.239098|    0.000000|    0.000000|
|        9960|   -5.311620|   -3.241372|    0.000000|    0.000000|
|        9961|   -5.315808|   -3.243808|    0.000000|    0.000000|
|        9962|   -5.320044|   -3.246461|    0.000000|    0.000000|
|        9963|   -5.324337|   -3.249255|    0.000000|    0.000000|
|        9964|   -5.328638|   -3.251998|    0.000000|    0.000000|
|        9965|   -5.332860|   -3.254815|    0.000000|    0.000000|
|        9966|   -5.337071|   -3.257762|    0.000000|    0.000000|
|        9967|   -5.341272|   -3.260671|    0.000000|    0.000000|
|        9968|   -5.345554|   -3.263630|    0.000000|    0.000000|
|        9969|   -5.349903|   -3.266705|    0.000000|    0.000000|
|        9970|   -5.354244|   -3.269793|    0.000000|    0.000000|
|        9971|   -5.358596|   -3.272808|    0.000000|    0.000000|
|        9972|   -5.362785|   -3.275756|    0.000000|    0.000000|
|        9973|   -5.366954|   -3.278504|    0.000000|    0.000000|
|        9974|   -5.371111|   -3.281115|    0.000000|    0.000000|
|        9975|   -5.375184|   -3.283696|    0.000000|    0.000000|
|        9976|   -5.379155|   -3.286268|    0.000000|    0.000000|
|        9977|   -5.383118|   -3.288872|    0.000000|    0.000000|
|        9978|   -5.387084|   -3.291497|    0.000000|    0.000000|
|        9979|   -5.391066|   -3.294119|    0.000000|    0.000000|
|        9980|   -5.395039|   -3.296744|    0.000000|    0.000000|
|        9981|   -5.398992|   -3.299379|    0.000000|    0.000000|
|        9982|   -5.402943|   -3.301987|    0.000000|    0.000000|
|        9983|   -5.406866|   -3.304464|    0.000000|    0.000000|
|        9984|   -5.410538|   -3.307009|    0.000000|    0.000000|
|        9985|   -5.414031|   -3.309421|    0.000000|    0.000000|
|        9986|   -5.417279|   -3.311705|    0.000000|    0.000000|
|        9987|   -5.420337|   -3.314154|    0.000000|    0.000000|
|        9988|   -5.423590|   -3.316514|    0.000000|    0.000000|
|        9989|   -5.426849|   -3.318891|    0.000000|    0.000000|
|        9990|   -5.430071|   -3.321272|    0.000000|    0.000000|
|        9991|   -5.433241|   -3.323632|    0.000000|    0.000000|
|        9992|   -5.436349|   -3.325957|    0.000000|    0.000000|
|        9993|   -5.439386|   -3.328243|    0.000000|    0.000000|
|        9994|   -5.442353|   -3.330493|    0.000000|    0.000000|
|        9995|   -5.445168|   -3.332579|    0.000000|    0.000000|
|        9996|   -5.447946|   -3.334593|    0.000000|    0.000000|
|        9997|   -5.450692|   -3.336567|    0.000000|    0.000000|
|        9998|   -5.453366|   -3.338479|    0.000000|    0.000000|
|        9999|   -5.455865|   -3.340322|    0.000000|    0.000000|

----------------------------- Solver Exit -------------------------------

Maximum number of iterations reached (ITER = 10000) before convergence.
+-----------------------------------------------------------------------+
|      Convergence Field     |     Value    |   Criterion  |  Converged |
+-----------------------------------------------------------------------+
|                      rms[P]|      -5.45586|         < -12|          No|
+-----------------------------------------------------------------------+
-------------------------------------------------------------------------
+-----------------------------------------------------------------------+
|        File Writing Summary       |              Filename             |
+-----------------------------------------------------------------------+
|Paraview                           |vol_solution.vtu                   |
|SU2 binary restart                 |restart_jet.dat                    |
+-----------------------------------------------------------------------+

--------------------------- Finalizing Solver ---------------------------
Deleted CNumerics container.
Deleted CIntegration container.
Deleted CSolver container.
Deleted CIteration container.
Deleted CInterface container.
Deleted CGeometry container.
Deleted CFreeFormDefBox class.
Deleted CSurfaceMovement class.
Deleted CVolumetricMovement class.
Deleted CConfig container.
Deleted nInst container.
Deleted COutput class.
-------------------------------------------------------------------------

------------------------- Exit Success (SU2_CFD) ------------------------

