
-------------------------------------------------------------------------
|    ___ _   _ ___                                                      |
|   / __| | | |_  )   Release 8.4.0 "Harrier"                           |
|   \__ \ |_| |/ /                                                      |
|   |___/\___//___|   Suite (Computational Fluid Dynamics Code)         |
|                                                                       |
-------------------------------------------------------------------------
| SU2 Project Website: https://su2code.github.io                        |
|                                                                       |
| The SU2 Project is maintained by the SU2 Foundation                   |
| (http://su2foundation.org)                                            |
-------------------------------------------------------------------------
| Copyright 2012-2026, SU2 Contributors                                 |
|                                                                       |
| SU2 is free software; you can redistribute it and/or                  |
| modify it under the terms of the GNU Lesser General Public            |
| License as published by the Free Software Foundation; either          |
| version 2.1 of the License, or (at your option) any later version.    |
|                                                                       |
| SU2 is distributed in the hope that it will be useful,                |
| but WITHOUT ANY WARRANTY; without even the implied warranty of        |
| MERCHANTABILITY or FITNESS FOR A PARTICULAR PURPOSE. See the GNU      |
| Lesser General Public License for more details.                       |
|                                                                       |
| You should have received a copy of the GNU Lesser General Public      |
| License along with SU2. If not, see <http://www.gnu.org/licenses/>.   |
-------------------------------------------------------------------------

Parsing config file for zone 0

----------------- Physical Case Definition ( Zone 0 ) -------------------
Compressible RANS equations.
Turbulence model: Spalart-Allmaras-noft2
Hybrid RANS/LES: No Hybrid RANS/LES
Mach number: 0.2.
Angle of attack (AoA): 0 deg, and angle of sideslip (AoS): 0 deg.
Reynolds number: 5e+06. Reference length 1.
No restart solution, use the values at infinity (freestream).
Dimensional simulation.
The reference area is 2 m^2.
The semi-span will be computed using the max y(3D) value.
The reference length is 1 m.
Reference origin for moment evaluation is (0.25, 0, 0).
Surface(s) where the force coefficients are evaluated: wall.

Surface(s) plotted in the output file: wall.
Input mesh file name: mesh_flatplate_turb_137x97.su2

--------------- Space Numerical Integration ( Zone 0 ) ------------------
Roe (with entropy fix = 0.001) solver for the flow inviscid terms.
Standard Roe without low-dissipation function.
Second order integration in space, with slope limiter.
No slope-limiting method. 
Scalar upwind solver for the turbulence model.
First order integration in space.
Average of gradients with correction (viscous flow terms).
Average of gradients with correction (viscous turbulence terms).
Gradient for upwind reconstruction: Green-Gauss.
Gradient for viscous and source terms: Green-Gauss.

--------------- Time Numerical Integration  ( Zone 0 ) ------------------
Local time stepping (steady state simulation).
Euler implicit method for the flow equations.
FGMRES is used for solving the linear system.
Using a ILU(0) preconditioning.
Convergence criteria of the linear solver: 1e-06.
Max number of linear iterations: 10.
V Multigrid Cycle, with 3 multigrid levels.
Damping factor for the residual restriction: 0.8.
Damping factor for the correction prolongation: 0.8.
No CFL adaptation.
+-------------------------------------------+
|  MG Level| Presmooth|PostSmooth|CorrectSmo|
+-------------------------------------------+
|         0|         1|         0|         0|
|         1|         2|         2|         0|
|         2|         3|         2|         0|
|         3|         3|         0|         0|
+-------------------------------------------+
Courant-Friedrichs-Lewy number:       10
Euler implicit time integration for the turbulence model.

------------------ Convergence Criteria  ( Zone 0 ) ---------------------
Maximum number of solver subiterations: 99999.
Begin convergence monitoring at iteration 10.
Residual minimum value: 1e-15.
Cauchy series min. value: 1e-06.
Number of Cauchy elements: 100.
Begin windowed time average at iteration 0.

-------------------- Output Information ( Zone 0 ) ----------------------
File writing frequency: 
+------------------------------------+
|                     File| Frequency|
+------------------------------------+
|                  RESTART|      1000|
|                 PARAVIEW|      1000|
|         SURFACE_PARAVIEW|      1000|
+------------------------------------+
Writing the convergence history file every 1 inner iterations.
Writing the screen convergence history every 1 inner iterations.
The tabular file format is CSV (.csv).
Convergence history file name: history.
Forces breakdown file name: forces_breakdown.dat.
Surface file name: surface_flow.
Volume file name: flow.
Restart file name: restart_flow.

------------- Config File Boundary Information ( Zone 0 ) ---------------
+-----------------------------------------------------------------------+
|                        Marker Type|                        Marker Name|
+-----------------------------------------------------------------------+
|                     Symmetry plane|                           symmetry|
+-----------------------------------------------------------------------+
|                     Inlet boundary|                              inlet|
+-----------------------------------------------------------------------+
|                    Outlet boundary|                             outlet|
|                                   |                           farfield|
+-----------------------------------------------------------------------+
|                     Heat flux wall|                               wall|
+-----------------------------------------------------------------------+

-------------------- Output Preprocessing ( Zone 0 ) --------------------

WARNING: SURFACE_PRESSURE_DROP can only be computed for at least 2 surfaces (outlet, inlet, ...)

Screen output fields: INNER_ITER, RMS_DENSITY, RMS_ENERGY, AVG_SOUND_SPEED
History output group(s): ITER, RMS_RES
Convergence field(s): RMS_DENSITY
Warning: No (valid) fields chosen for time convergence monitoring. Time convergence monitoring inactive.
Volume output fields: PRIMITIVE, COORDINATES, SOLUTION

------------------- Geometry Preprocessing ( Zone 0 ) -------------------
Two dimensional problem.
13289 grid points.
13056 volume elements.
5 surface markers.
136 boundary elements in index 0 (Marker = farfield).
96 boundary elements in index 1 (Marker = inlet).
96 boundary elements in index 2 (Marker = outlet).
24 boundary elements in index 3 (Marker = symmetry).
112 boundary elements in index 4 (Marker = wall).
13056 quadrilaterals.
Setting point connectivity.
Renumbering points (Reverse Cuthill McKee Ordering).
Recomputing point connectivity.
Setting element connectivity.
Checking the numerical grid orientation.
All volume elements are correctly oriented.
There has been a re-orientation of 232 LINE surface elements.
Identifying edges and vertices.
Setting the control volume structure.
Area of the computational grid: 2.33333.
Searching for the closest normal neighbors to the surfaces.
Storing a mapping from global to local point index.
Compute the surface curvature.
Max K: 49.9164. Mean K: 0.708388. Standard deviation K: 4.72131.
Checking for periodicity.
Computing mesh quality statistics for the dual control volumes.
+--------------------------------------------------------------+
|           Mesh Quality Metric|        Minimum|        Maximum|
+--------------------------------------------------------------+
|    Orthogonality Angle (deg.)|             90|             90|
|     CV Face Area Aspect Ratio|        1.00018|        42858.7|
|           CV Sub-Volume Ratio|              1|        1.28235|
+--------------------------------------------------------------+
Setting the multigrid structure.
+-------------------------------------------+
|  MG Level|       CVs|Aggl. Rate|       CFL|
+-------------------------------------------+
|         0|     13289|    1/1.00|        10|
|         1|      3375|    1/3.94|   7.55931|
|         2|       873|    1/3.87|   5.76691|
|         3|       230|     1/3.8|   4.44009|
+-------------------------------------------+
Finding max control volume width.
Wetted area = 2 m.
Area projection in the x-plane = 0 m, y-plane = 0 m.
Max. coordinate in the x-direction = 2 m, y-direction = 2.22045e-16 m.
Min. coordinate in the x-direction = 0 m, y-direction = 2.22045e-16 m.
Computing wall distances.

-------------------- Solver Preprocessing ( Zone 0 ) --------------------
Viscous flow: Computing pressure using the ideal gas law
based on the free-stream temperature and a density computed
from the Reynolds number.
Force coefficients computed using free-stream values.

-- Models:
+------------------------------------------------------------------------------+
|          Viscosity Model|        Conductivity Model|              Fluid Model|
+------------------------------------------------------------------------------+
|               SUTHERLAND|          CONSTANT_PRANDTL|             STANDARD_AIR|
+------------------------------------------------------------------------------+
-- Fluid properties:
+------------------------------------------------------------------------------+
|                  Name|    Dim. value|    Ref. value|      Unit|Non-dim. value|
+------------------------------------------------------------------------------+
|        Ref. Viscosity|     1.716e-05|             1|   N.s/m^2|     1.716e-05|
|      Sutherland Temp.|        273.15|             1|         K|        273.15|
|     Sutherland Const.|         110.4|             1|         K|         110.4|
+------------------------------------------------------------------------------+
|        Prandtl (Lam.)|             -|             -|         -|          0.72|
|       Prandtl (Turb.)|             -|             -|         -|           0.9|
+------------------------------------------------------------------------------+
|          Gas Constant|       287.058|             1|  N.m/kg.K|       287.058|
|      Spec. Heat Ratio|             -|             -|         -|           1.4|
+------------------------------------------------------------------------------+
-- Initial and free-stream conditions:
+------------------------------------------------------------------------------+
|                  Name|    Dim. value|    Ref. value|      Unit|Non-dim. value|
+------------------------------------------------------------------------------+
|       Static Pressure|        114455|             1|        Pa|        114455|
|               Density|       1.32905|             1|    kg/m^3|       1.32905|
|           Temperature|           300|             1|         K|           300|
|          Total Energy|        217705|             1|   m^2/s^2|        217705|
|            Velocity-X|       69.4448|             1|       m/s|       69.4448|
|            Velocity-Y|             0|             1|       m/s|             0|
|    Velocity Magnitude|       69.4448|             1|       m/s|       69.4448|
+------------------------------------------------------------------------------+
|             Viscosity|   1.84592e-05|             1|   N.s/m^2|   1.84592e-05|
|          Conductivity|             -|             1|   W/m^2.K|             -|
|     Turb. Kin. Energy|       18.0847|             1|   m^2/s^2|       18.0847|
|     Spec. Dissipation|        130209|             1|       1/s|        130209|
+------------------------------------------------------------------------------+
|           Mach Number|             -|             -|         -|           0.2|
|       Reynolds Number|             -|             -|         -|         5e+06|
+------------------------------------------------------------------------------+
Initialize Jacobian structure (Navier-Stokes). MG level: 0.
Initialize Jacobian structure (SA model).
Initialize Jacobian structure (Navier-Stokes). MG level: 1.
Initialize Jacobian structure (Navier-Stokes). MG level: 2.
Initialize Jacobian structure (Navier-Stokes). MG level: 3.

------------------- Numerics Preprocessing ( Zone 0 ) -------------------

----------------- Integration Preprocessing ( Zone 0 ) ------------------

------------------- Iteration Preprocessing ( Zone 0 ) ------------------
Euler/Navier-Stokes/RANS fluid iteration.

------------------------------ Begin Solver -----------------------------

Simulation Run using the Single-zone Driver
WARNING: SU2 was not compiled for an AVX-capable architecture. Performance could be better,
         see https://su2code.github.io/docs_v7/Build-SU2-Linux-MacOS/#compiler-optimizations
WARNING: SU2 was not compiled for an AVX-capable architecture. Performance could be better,
         see https://su2code.github.io/docs_v7/Build-SU2-Linux-MacOS/#compiler-optimizations
WARNING: SU2 was not compiled for an AVX-capable architecture. Performance could be better,
         see https://su2code.github.io/docs_v7/Build-SU2-Linux-MacOS/#compiler-optimizations
WARNING: SU2 was not compiled for an AVX-capable architecture. Performance could be better,
         see https://su2code.github.io/docs_v7/Build-SU2-Linux-MacOS/#compiler-optimizations
+---------------------------------------------------+
|  Inner_Iter|    rms[Rho]|   rms[RhoE]|       Avg_a|
+---------------------------------------------------+
|           0|   -2.258584|    3.210776|  3.4722e+02|
|           1|   -2.639421|    2.867060|  3.4722e+02|
|           2|   -2.517319|    2.976611|  3.4722e+02|
|           3|   -2.796503|    2.692343|  3.4722e+02|
|           4|   -3.271759|    2.206163|  3.4722e+02|
|           5|   -3.512008|    1.979257|  3.4722e+02|
|           6|   -3.643387|    1.858525|  3.4722e+02|
|           7|   -3.737680|    1.769473|  3.4722e+02|
|           8|   -3.812254|    1.701314|  3.4722e+02|
|           9|   -3.902175|    1.618150|  3.4722e+02|
|          10|   -3.988215|    1.531380|  3.4722e+02|
|          11|   -4.044646|    1.459325|  3.4722e+02|
|          12|   -4.072059|    1.409419|  3.4722e+02|
|          13|   -4.092704|    1.373755|  3.4722e+02|
|          14|   -4.121919|    1.340821|  3.4722e+02|
|          15|   -4.160861|    1.306068|  3.4722e+02|
|          16|   -4.202782|    1.271178|  3.4722e+02|
|          17|   -4.240242|    1.239182|  3.4722e+02|
|          18|   -4.270237|    1.211347|  3.4722e+02|
|          19|   -4.294516|    1.187096|  3.4722e+02|
|          20|   -4.316128|    1.165393|  3.4722e+02|
|          21|   -4.336725|    1.145675|  3.4722e+02|
|          22|   -4.356391|    1.127786|  3.4722e+02|
|          23|   -4.374718|    1.111518|  3.4722e+02|
|          24|   -4.391675|    1.096354|  3.4722e+02|
|          25|   -4.407711|    1.081630|  3.4722e+02|
|          26|   -4.423346|    1.066879|  3.4722e+02|
|          27|   -4.438809|    1.052014|  3.4722e+02|
|          28|   -4.454021|    1.037234|  3.4722e+02|
|          29|   -4.468819|    1.022768|  3.4722e+02|
|          30|   -4.483156|    1.008685|  3.4722e+02|
|          31|   -4.497128|    0.994899|  3.4722e+02|
|          32|   -4.510859|    0.981286|  3.4722e+02|
|          33|   -4.524397|    0.967801|  3.4722e+02|
|          34|   -4.537712|    0.954478|  3.4722e+02|
|          35|   -4.550751|    0.941378|  3.4722e+02|
|          36|   -4.563494|    0.928528|  3.4722e+02|
|          37|   -4.575957|    0.915925|  3.4722e+02|
|          38|   -4.588165|    0.903552|  3.4722e+02|
|          39|   -4.600136|    0.891404|  3.4722e+02|
|          40|   -4.611877|    0.879479|  3.4722e+02|
|          41|   -4.623403|    0.867771|  3.4722e+02|
|          42|   -4.634735|    0.856260|  3.4722e+02|
|          43|   -4.645901|    0.844922|  3.4722e+02|
|          44|   -4.656918|    0.833743|  3.4722e+02|
|          45|   -4.667793|    0.822719|  3.4722e+02|
|          46|   -4.678518|    0.811856|  3.4722e+02|
|          47|   -4.689087|    0.801165|  3.4722e+02|
|          48|   -4.699494|    0.790649|  3.4722e+02|
|          49|   -4.709741|    0.780308|  3.4722e+02|
|          50|   -4.719832|    0.770137|  3.4722e+02|
|          51|   -4.729777|    0.760127|  3.4722e+02|
|          52|   -4.739582|    0.750270|  3.4722e+02|
|          53|   -4.749254|    0.740560|  3.4722e+02|
|          54|   -4.758795|    0.730991|  3.4722e+02|
|          55|   -4.768204|    0.721562|  3.4722e+02|
|          56|   -4.777480|    0.712271|  3.4722e+02|
|          57|   -4.786618|    0.703118|  3.4722e+02|
|          58|   -4.795614|    0.694102|  3.4722e+02|
|          59|   -4.804465|    0.685223|  3.4722e+02|
|          60|   -4.813168|    0.676478|  3.4722e+02|
|          61|   -4.821718|    0.667867|  3.4722e+02|
|          62|   -4.830115|    0.659390|  3.4722e+02|
|          63|   -4.838357|    0.651044|  3.4722e+02|
|          64|   -4.846447|    0.642828|  3.4722e+02|
|          65|   -4.854388|    0.634739|  3.4722e+02|
|          66|   -4.862184|    0.626775|  3.4722e+02|
|          67|   -4.869843|    0.618932|  3.4722e+02|
|          68|   -4.877369|    0.611206|  3.4722e+02|
|          69|   -4.884772|    0.603595|  3.4722e+02|
|          70|   -4.892058|    0.596095|  3.4722e+02|
|          71|   -4.899232|    0.588703|  3.4722e+02|
|          72|   -4.906302|    0.581417|  3.4722e+02|
|          73|   -4.913271|    0.574234|  3.4722e+02|
|          74|   -4.920144|    0.567151|  3.4722e+02|
|          75|   -4.926925|    0.560167|  3.4722e+02|
|          76|   -4.933617|    0.553279|  3.4722e+02|
|          77|   -4.940221|    0.546483|  3.4722e+02|
|          78|   -4.946741|    0.539779|  3.4722e+02|
|          79|   -4.953177|    0.533164|  3.4722e+02|
|          80|   -4.959530|    0.526636|  3.4722e+02|
|          81|   -4.965802|    0.520195|  3.4722e+02|
|          82|   -4.971994|    0.513838|  3.4722e+02|
|          83|   -4.978107|    0.507565|  3.4722e+02|
|          84|   -4.984140|    0.501375|  3.4722e+02|
|          85|   -4.990096|    0.495267|  3.4722e+02|
|          86|   -4.995974|    0.489239|  3.4722e+02|
|          87|   -5.001777|    0.483291|  3.4722e+02|
|          88|   -5.007505|    0.477421|  3.4722e+02|
|          89|   -5.013159|    0.471628|  3.4722e+02|
|          90|   -5.018742|    0.465910|  3.4722e+02|
|          91|   -5.024253|    0.460266|  3.4722e+02|
|          92|   -5.029696|    0.454694|  3.4722e+02|
|          93|   -5.035071|    0.449192|  3.4722e+02|
|          94|   -5.040380|    0.443759|  3.4722e+02|
|          95|   -5.045626|    0.438393|  3.4722e+02|
|          96|   -5.050810|    0.433091|  3.4722e+02|
|          97|   -5.055933|    0.427853|  3.4722e+02|
|          98|   -5.060999|    0.422676|  3.4722e+02|
|          99|   -5.066008|    0.417558|  3.4722e+02|
|         100|   -5.070962|    0.412498|  3.4722e+02|
|         101|   -5.075864|    0.407494|  3.4722e+02|
|         102|   -5.080714|    0.402545|  3.4722e+02|
|         103|   -5.085515|    0.397649|  3.4722e+02|
|         104|   -5.090268|    0.392804|  3.4722e+02|
|         105|   -5.094974|    0.388010|  3.4722e+02|
|         106|   -5.099634|    0.383265|  3.4722e+02|
|         107|   -5.104250|    0.378568|  3.4722e+02|
|         108|   -5.108821|    0.373918|  3.4722e+02|
|         109|   -5.113350|    0.369314|  3.4722e+02|
|         110|   -5.117835|    0.364757|  3.4722e+02|
|         111|   -5.122279|    0.360244|  3.4722e+02|
|         112|   -5.126682|    0.355775|  3.4722e+02|
|         113|   -5.131043|    0.351350|  3.4722e+02|
|         114|   -5.135364|    0.346969|  3.4722e+02|
|         115|   -5.139646|    0.342630|  3.4722e+02|
|         116|   -5.143888|    0.338333|  3.4722e+02|
|         117|   -5.148092|    0.334078|  3.4722e+02|
|         118|   -5.152258|    0.329863|  3.4722e+02|
|         119|   -5.156387|    0.325689|  3.4722e+02|
|         120|   -5.160480|    0.321555|  3.4722e+02|
|         121|   -5.164536|    0.317460|  3.4722e+02|
|         122|   -5.168558|    0.313402|  3.4722e+02|
|         123|   -5.172545|    0.309382|  3.4722e+02|
|         124|   -5.176498|    0.305398|  3.4722e+02|
|         125|   -5.180417|    0.301450|  3.4722e+02|
|         126|   -5.184303|    0.297537|  3.4722e+02|
|         127|   -5.188157|    0.293658|  3.4722e+02|
|         128|   -5.191979|    0.289812|  3.4722e+02|
|         129|   -5.195768|    0.285998|  3.4722e+02|
|         130|   -5.199526|    0.282216|  3.4722e+02|
|         131|   -5.203252|    0.278466|  3.4722e+02|
|         132|   -5.206947|    0.274746|  3.4722e+02|
|         133|   -5.210611|    0.271057|  3.4722e+02|
|         134|   -5.214245|    0.267397|  3.4722e+02|
|         135|   -5.217848|    0.263766|  3.4722e+02|
|         136|   -5.221421|    0.260164|  3.4722e+02|
|         137|   -5.224965|    0.256590|  3.4722e+02|
|         138|   -5.228479|    0.253045|  3.4722e+02|
|         139|   -5.231964|    0.249527|  3.4722e+02|
|         140|   -5.235420|    0.246036|  3.4722e+02|
|         141|   -5.238848|    0.242573|  3.4722e+02|
|         142|   -5.242248|    0.239136|  3.4722e+02|
|         143|   -5.245621|    0.235725|  3.4722e+02|
|         144|   -5.248966|    0.232340|  3.4722e+02|
|         145|   -5.252285|    0.228981|  3.4722e+02|
|         146|   -5.255578|    0.225647|  3.4722e+02|
|         147|   -5.258845|    0.222338|  3.4722e+02|
|         148|   -5.262086|    0.219052|  3.4722e+02|
|         149|   -5.265302|    0.215791|  3.4722e+02|
|         150|   -5.268494|    0.212553|  3.4722e+02|
|         151|   -5.271661|    0.209339|  3.4722e+02|
|         152|   -5.274805|    0.206146|  3.4722e+02|
|         153|   -5.277924|    0.202976|  3.4722e+02|
|         154|   -5.281021|    0.199828|  3.4722e+02|
|         155|   -5.284095|    0.196700|  3.4722e+02|
|         156|   -5.287147|    0.193594|  3.4722e+02|
|         157|   -5.290177|    0.190509|  3.4722e+02|
|         158|   -5.293185|    0.187444|  3.4722e+02|
|         159|   -5.296172|    0.184399|  3.4722e+02|
|         160|   -5.299138|    0.181373|  3.4722e+02|
|         161|   -5.302083|    0.178368|  3.4722e+02|
|         162|   -5.305008|    0.175382|  3.4722e+02|
|         163|   -5.307913|    0.172415|  3.4722e+02|
|         164|   -5.310798|    0.169468|  3.4722e+02|
|         165|   -5.313664|    0.166539|  3.4722e+02|
|         166|   -5.316511|    0.163630|  3.4722e+02|
|         167|   -5.319338|    0.160739|  3.4722e+02|
|         168|   -5.322148|    0.157867|  3.4722e+02|
|         169|   -5.324939|    0.155013|  3.4722e+02|
|         170|   -5.327712|    0.152177|  3.4722e+02|
|         171|   -5.330467|    0.149360|  3.4722e+02|
|         172|   -5.333205|    0.146560|  3.4722e+02|
|         173|   -5.335926|    0.143778|  3.4722e+02|
|         174|   -5.338630|    0.141013|  3.4722e+02|
|         175|   -5.341318|    0.138265|  3.4722e+02|
|         176|   -5.343989|    0.135534|  3.4722e+02|
|         177|   -5.346644|    0.132820|  3.4722e+02|
|         178|   -5.349283|    0.130122|  3.4722e+02|
|         179|   -5.351905|    0.127441|  3.4722e+02|
|         180|   -5.354513|    0.124775|  3.4722e+02|
|         181|   -5.357104|    0.122125|  3.4722e+02|
|         182|   -5.359680|    0.119490|  3.4722e+02|
|         183|   -5.362240|    0.116871|  3.4722e+02|
|         184|   -5.364786|    0.114268|  3.4722e+02|
|         185|   -5.367315|    0.111679|  3.4722e+02|
|         186|   -5.369830|    0.109105|  3.4722e+02|
|         187|   -5.372330|    0.106546|  3.4722e+02|
|         188|   -5.374815|    0.104001|  3.4722e+02|
|         189|   -5.377285|    0.101471|  3.4722e+02|
|         190|   -5.379741|    0.098956|  3.4722e+02|
|         191|   -5.382183|    0.096454|  3.4722e+02|
|         192|   -5.384611|    0.093967|  3.4722e+02|
|         193|   -5.387026|    0.091495|  3.4722e+02|
|         194|   -5.389428|    0.089036|  3.4722e+02|
|         195|   -5.391818|    0.086591|  3.4722e+02|
|         196|   -5.394196|    0.084160|  3.4722e+02|
|         197|   -5.396562|    0.081742|  3.4722e+02|
|         198|   -5.398918|    0.079338|  3.4722e+02|
|         199|   -5.401262|    0.076947|  3.4722e+02|
|         200|   -5.403597|    0.074570|  3.4722e+02|
|         201|   -5.405921|    0.072206|  3.4722e+02|
|         202|   -5.408236|    0.069854|  3.4722e+02|
|         203|   -5.410540|    0.067516|  3.4722e+02|
|         204|   -5.412835|    0.065190|  3.4722e+02|
|         205|   -5.415120|    0.062877|  3.4722e+02|
|         206|   -5.417395|    0.060576|  3.4722e+02|
|         207|   -5.419659|    0.058287|  3.4722e+02|
|         208|   -5.421913|    0.056011|  3.4722e+02|
|         209|   -5.424157|    0.053746|  3.4722e+02|
|         210|   -5.426389|    0.051494|  3.4722e+02|
|         211|   -5.428610|    0.049253|  3.4722e+02|
|         212|   -5.430820|    0.047024|  3.4722e+02|
|         213|   -5.433018|    0.044807|  3.4722e+02|
|         214|   -5.435205|    0.042601|  3.4722e+02|
|         215|   -5.437379|    0.040407|  3.4722e+02|
|         216|   -5.439542|    0.038224|  3.4722e+02|
|         217|   -5.441692|    0.036052|  3.4722e+02|
|         218|   -5.443831|    0.033892|  3.4722e+02|
|         219|   -5.445958|    0.031743|  3.4722e+02|
|         220|   -5.448073|    0.029605|  3.4722e+02|
|         221|   -5.450177|    0.027478|  3.4722e+02|
|         222|   -5.452270|    0.025362|  3.4722e+02|
|         223|   -5.454351|    0.023257|  3.4722e+02|
|         224|   -5.456421|    0.021162|  3.4722e+02|
|         225|   -5.458481|    0.019079|  3.4722e+02|
|         226|   -5.460530|    0.017006|  3.4722e+02|
|         227|   -5.462568|    0.014944|  3.4722e+02|
|         228|   -5.464597|    0.012892|  3.4722e+02|
|         229|   -5.466615|    0.010850|  3.4722e+02|
|         230|   -5.468622|    0.008819|  3.4722e+02|
|         231|   -5.470620|    0.006799|  3.4722e+02|
|         232|   -5.472609|    0.004788|  3.4722e+02|
|         233|   -5.474587|    0.002788|  3.4722e+02|
|         234|   -5.476555|    0.000798|  3.4722e+02|
|         235|   -5.478514|   -0.001182|  3.4722e+02|
|         236|   -5.480463|   -0.003153|  3.4722e+02|
|         237|   -5.482403|   -0.005113|  3.4722e+02|
|         238|   -5.484333|   -0.007063|  3.4722e+02|
|         239|   -5.486254|   -0.009004|  3.4722e+02|
|         240|   -5.488165|   -0.010934|  3.4722e+02|
|         241|   -5.490067|   -0.012855|  3.4722e+02|
|         242|   -5.491959|   -0.014767|  3.4722e+02|
|         243|   -5.493842|   -0.016669|  3.4722e+02|
|         244|   -5.495716|   -0.018561|  3.4722e+02|
|         245|   -5.497581|   -0.020444|  3.4722e+02|
|         246|   -5.499436|   -0.022318|  3.4722e+02|
|         247|   -5.501282|   -0.024182|  3.4722e+02|
|         248|   -5.503120|   -0.026037|  3.4722e+02|
|         249|   -5.504948|   -0.027883|  3.4722e+02|
|         250|   -5.506767|   -0.029720|  3.4722e+02|
|         251|   -5.508578|   -0.031547|  3.4722e+02|
|         252|   -5.510380|   -0.033366|  3.4722e+02|
|         253|   -5.512172|   -0.035176|  3.4722e+02|
|         254|   -5.513957|   -0.036977|  3.4722e+02|
|         255|   -5.515732|   -0.038769|  3.4722e+02|
|         256|   -5.517499|   -0.040553|  3.4722e+02|
|         257|   -5.519257|   -0.042328|  3.4722e+02|
|         258|   -5.521007|   -0.044094|  3.4722e+02|
|         259|   -5.522749|   -0.045852|  3.4722e+02|
|         260|   -5.524482|   -0.047601|  3.4722e+02|
|         261|   -5.526207|   -0.049342|  3.4722e+02|
|         262|   -5.527923|   -0.051074|  3.4722e+02|
|         263|   -5.529632|   -0.052798|  3.4722e+02|
|         264|   -5.531332|   -0.054514|  3.4722e+02|
|         265|   -5.533024|   -0.056222|  3.4722e+02|
|         266|   -5.534708|   -0.057922|  3.4722e+02|
|         267|   -5.536384|   -0.059613|  3.4722e+02|
|         268|   -5.538052|   -0.061297|  3.4722e+02|
|         269|   -5.539712|   -0.062972|  3.4722e+02|
|         270|   -5.541365|   -0.064640|  3.4722e+02|
|         271|   -5.543009|   -0.066299|  3.4722e+02|
|         272|   -5.544646|   -0.067951|  3.4722e+02|
|         273|   -5.546276|   -0.069595|  3.4722e+02|
|         274|   -5.547898|   -0.071232|  3.4722e+02|
|         275|   -5.549512|   -0.072861|  3.4722e+02|
|         276|   -5.551119|   -0.074482|  3.4722e+02|
|         277|   -5.552719|   -0.076095|  3.4722e+02|
|         278|   -5.554311|   -0.077702|  3.4722e+02|
|         279|   -5.555896|   -0.079300|  3.4722e+02|
|         280|   -5.557473|   -0.080892|  3.4722e+02|
|         281|   -5.559044|   -0.082476|  3.4722e+02|
|         282|   -5.560607|   -0.084053|  3.4722e+02|
|         283|   -5.562164|   -0.085623|  3.4722e+02|
|         284|   -5.563713|   -0.087185|  3.4722e+02|
|         285|   -5.565255|   -0.088741|  3.4722e+02|
|         286|   -5.566791|   -0.090289|  3.4722e+02|
|         287|   -5.568319|   -0.091831|  3.4722e+02|
|         288|   -5.569841|   -0.093365|  3.4722e+02|
|         289|   -5.571355|   -0.094893|  3.4722e+02|
|         290|   -5.572863|   -0.096414|  3.4722e+02|
|         291|   -5.574365|   -0.097928|  3.4722e+02|
|         292|   -5.575859|   -0.099435|  3.4722e+02|
|         293|   -5.577347|   -0.100936|  3.4722e+02|
|         294|   -5.578828|   -0.102429|  3.4722e+02|
|         295|   -5.580303|   -0.103916|  3.4722e+02|
|         296|   -5.581771|   -0.105397|  3.4722e+02|
|         297|   -5.583232|   -0.106871|  3.4722e+02|
|         298|   -5.584687|   -0.108338|  3.4722e+02|
|         299|   -5.586136|   -0.109799|  3.4722e+02|
|         300|   -5.587578|   -0.111253|  3.4722e+02|
|         301|   -5.589013|   -0.112701|  3.4722e+02|
|         302|   -5.590442|   -0.114143|  3.4722e+02|
|         303|   -5.591865|   -0.115577|  3.4722e+02|
|         304|   -5.593282|   -0.117006|  3.4722e+02|
|         305|   -5.594692|   -0.118428|  3.4722e+02|
|         306|   -5.596096|   -0.119844|  3.4722e+02|
|         307|   -5.597494|   -0.121253|  3.4722e+02|
|         308|   -5.598885|   -0.122657|  3.4722e+02|
|         309|   -5.600270|   -0.124054|  3.4722e+02|
|         310|   -5.601649|   -0.125444|  3.4722e+02|
|         311|   -5.603022|   -0.126829|  3.4722e+02|
|         312|   -5.604389|   -0.128207|  3.4722e+02|
|         313|   -5.605750|   -0.129579|  3.4722e+02|
|         314|   -5.607104|   -0.130944|  3.4722e+02|
|         315|   -5.608453|   -0.132304|  3.4722e+02|
|         316|   -5.609795|   -0.133657|  3.4722e+02|
|         317|   -5.611132|   -0.135005|  3.4722e+02|
|         318|   -5.612462|   -0.136346|  3.4722e+02|
|         319|   -5.613786|   -0.137681|  3.4722e+02|
|         320|   -5.615104|   -0.139010|  3.4722e+02|
|         321|   -5.616416|   -0.140333|  3.4722e+02|
|         322|   -5.617723|   -0.141649|  3.4722e+02|
|         323|   -5.619023|   -0.142960|  3.4722e+02|
|         324|   -5.620317|   -0.144265|  3.4722e+02|
|         325|   -5.621605|   -0.145564|  3.4722e+02|
|         326|   -5.622887|   -0.146857|  3.4722e+02|
|         327|   -5.624163|   -0.148144|  3.4722e+02|
|         328|   -5.625434|   -0.149425|  3.4722e+02|
|         329|   -5.626698|   -0.150700|  3.4722e+02|
|         330|   -5.627956|   -0.151969|  3.4722e+02|
|         331|   -5.629209|   -0.153232|  3.4722e+02|
|         332|   -5.630455|   -0.154490|  3.4722e+02|
|         333|   -5.631696|   -0.155742|  3.4722e+02|
|         334|   -5.632931|   -0.156988|  3.4722e+02|
|         335|   -5.634160|   -0.158228|  3.4722e+02|
|         336|   -5.635383|   -0.159462|  3.4722e+02|
|         337|   -5.636600|   -0.160691|  3.4722e+02|
|         338|   -5.637812|   -0.161914|  3.4722e+02|
|         339|   -5.639018|   -0.163132|  3.4722e+02|
|         340|   -5.640218|   -0.164344|  3.4722e+02|
|         341|   -5.641412|   -0.165550|  3.4722e+02|
|         342|   -5.642601|   -0.166751|  3.4722e+02|
|         343|   -5.643784|   -0.167947|  3.4722e+02|
|         344|   -5.644962|   -0.169137|  3.4722e+02|
|         345|   -5.646134|   -0.170321|  3.4722e+02|
|         346|   -5.647300|   -0.171501|  3.4722e+02|
|         347|   -5.648461|   -0.172674|  3.4722e+02|
|         348|   -5.649616|   -0.173843|  3.4722e+02|
|         349|   -5.650766|   -0.175006|  3.4722e+02|
|         350|   -5.651910|   -0.176164|  3.4722e+02|
|         351|   -5.653049|   -0.177317|  3.4722e+02|
|         352|   -5.654182|   -0.178465|  3.4722e+02|
|         353|   -5.655311|   -0.179608|  3.4722e+02|
|         354|   -5.656433|   -0.180746|  3.4722e+02|
|         355|   -5.657551|   -0.181878|  3.4722e+02|
|         356|   -5.658663|   -0.183006|  3.4722e+02|
|         357|   -5.659770|   -0.184129|  3.4722e+02|
|         358|   -5.660872|   -0.185247|  3.4722e+02|
|         359|   -5.661968|   -0.186360|  3.4722e+02|
|         360|   -5.663059|   -0.187469|  3.4722e+02|
|         361|   -5.664146|   -0.188572|  3.4722e+02|
|         362|   -5.665227|   -0.189671|  3.4722e+02|
|         363|   -5.666303|   -0.190766|  3.4722e+02|
|         364|   -5.667373|   -0.191856|  3.4722e+02|
|         365|   -5.668439|   -0.192941|  3.4722e+02|
|         366|   -5.669500|   -0.194022|  3.4722e+02|
|         367|   -5.670555|   -0.195099|  3.4722e+02|
|         368|   -5.671606|   -0.196171|  3.4722e+02|
|         369|   -5.672652|   -0.197238|  3.4722e+02|
|         370|   -5.673692|   -0.198302|  3.4722e+02|
|         371|   -5.674728|   -0.199361|  3.4722e+02|
|         372|   -5.675758|   -0.200416|  3.4722e+02|
|         373|   -5.676784|   -0.201467|  3.4722e+02|
|         374|   -5.677805|   -0.202513|  3.4722e+02|
|         375|   -5.678821|   -0.203556|  3.4722e+02|
|         376|   -5.679831|   -0.204594|  3.4722e+02|
|         377|   -5.680837|   -0.205629|  3.4722e+02|
|         378|   -5.681838|   -0.206659|  3.4722e+02|
|         379|   -5.682834|   -0.207685|  3.4722e+02|
|         380|   -5.683825|   -0.208707|  3.4722e+02|
|         381|   -5.684811|   -0.209726|  3.4722e+02|
|         382|   -5.685792|   -0.210740|  3.4722e+02|
|         383|   -5.686768|   -0.211750|  3.4722e+02|
|         384|   -5.687739|   -0.212757|  3.4722e+02|
|         385|   -5.688705|   -0.213759|  3.4722e+02|
|         386|   -5.689666|   -0.214758|  3.4722e+02|
|         387|   -5.690622|   -0.215752|  3.4722e+02|
|         388|   -5.691573|   -0.216742|  3.4722e+02|
|         389|   -5.692518|   -0.217729|  3.4722e+02|
|         390|   -5.693459|   -0.218711|  3.4722e+02|
|         391|   -5.694394|   -0.219690|  3.4722e+02|
|         392|   -5.695324|   -0.220664|  3.4722e+02|
|         393|   -5.696248|   -0.221634|  3.4722e+02|
|         394|   -5.697167|   -0.222600|  3.4722e+02|
|         395|   -5.698081|   -0.223562|  3.4722e+02|
|         396|   -5.698990|   -0.224519|  3.4722e+02|
|         397|   -5.699892|   -0.225472|  3.4722e+02|
|         398|   -5.700789|   -0.226421|  3.4722e+02|
|         399|   -5.701681|   -0.227366|  3.4722e+02|
|         400|   -5.702567|   -0.228305|  3.4722e+02|
|         401|   -5.703447|   -0.229241|  3.4722e+02|
|         402|   -5.704321|   -0.230171|  3.4722e+02|
|         403|   -5.705189|   -0.231097|  3.4722e+02|
|         404|   -5.706051|   -0.232018|  3.4722e+02|
|         405|   -5.706907|   -0.232933|  3.4722e+02|
|         406|   -5.707757|   -0.233844|  3.4722e+02|
|         407|   -5.708601|   -0.234750|  3.4722e+02|
|         408|   -5.709439|   -0.235650|  3.4722e+02|
|         409|   -5.710269|   -0.236545|  3.4722e+02|
|         410|   -5.711094|   -0.237435|  3.4722e+02|
|         411|   -5.711912|   -0.238319|  3.4722e+02|
|         412|   -5.712723|   -0.239197|  3.4722e+02|
|         413|   -5.713528|   -0.240069|  3.4722e+02|
|         414|   -5.714325|   -0.240935|  3.4722e+02|
|         415|   -5.715116|   -0.241795|  3.4722e+02|
|         416|   -5.715900|   -0.242649|  3.4722e+02|
|         417|   -5.716677|   -0.243497|  3.4722e+02|
|         418|   -5.717447|   -0.244338|  3.4722e+02|
|         419|   -5.718209|   -0.245172|  3.4722e+02|
|         420|   -5.718964|   -0.246000|  3.4722e+02|
|         421|   -5.719712|   -0.246820|  3.4722e+02|
|         422|   -5.720453|   -0.247634|  3.4722e+02|
|         423|   -5.721186|   -0.248441|  3.4722e+02|
|         424|   -5.721912|   -0.249240|  3.4722e+02|
|         425|   -5.722630|   -0.250032|  3.4722e+02|
|         426|   -5.723340|   -0.250816|  3.4722e+02|
|         427|   -5.724043|   -0.251593|  3.4722e+02|
|         428|   -5.724738|   -0.252361|  3.4722e+02|
|         429|   -5.725426|   -0.253122|  3.4722e+02|
|         430|   -5.726105|   -0.253876|  3.4722e+02|
|         431|   -5.726778|   -0.254621|  3.4722e+02|
|         432|   -5.727442|   -0.255357|  3.4722e+02|
|         433|   -5.728099|   -0.256086|  3.4722e+02|
|         434|   -5.728748|   -0.256806|  3.4722e+02|
|         435|   -5.729389|   -0.257518|  3.4722e+02|
|         436|   -5.730022|   -0.258222|  3.4722e+02|
|         437|   -5.730648|   -0.258917|  3.4722e+02|
|         438|   -5.731267|   -0.259603|  3.4722e+02|
|         439|   -5.731878|   -0.260281|  3.4722e+02|
|         440|   -5.732481|   -0.260951|  3.4722e+02|
|         441|   -5.733077|   -0.261612|  3.4722e+02|
|         442|   -5.733665|   -0.262264|  3.4722e+02|
|         443|   -5.734247|   -0.262908|  3.4722e+02|
|         444|   -5.734821|   -0.263543|  3.4722e+02|
|         445|   -5.735388|   -0.264170|  3.4722e+02|
|         446|   -5.735948|   -0.264788|  3.4722e+02|
|         447|   -5.736502|   -0.265398|  3.4722e+02|
|         448|   -5.737049|   -0.265999|  3.4722e+02|
|         449|   -5.737589|   -0.266592|  3.4722e+02|
|         450|   -5.738123|   -0.267177|  3.4722e+02|
|         451|   -5.738650|   -0.267754|  3.4722e+02|
|         452|   -5.739172|   -0.268323|  3.4722e+02|
|         453|   -5.739688|   -0.268885|  3.4722e+02|
|         454|   -5.740198|   -0.269438|  3.4722e+02|
|         455|   -5.740702|   -0.269984|  3.4722e+02|
|         456|   -5.741202|   -0.270523|  3.4722e+02|
|         457|   -5.741696|   -0.271055|  3.4722e+02|
|         458|   -5.742185|   -0.271579|  3.4722e+02|
|         459|   -5.742669|   -0.272097|  3.4722e+02|
|         460|   -5.743150|   -0.272609|  3.4722e+02|
|         461|   -5.743626|   -0.273114|  3.4722e+02|
|         462|   -5.744097|   -0.273613|  3.4722e+02|
|         463|   -5.744566|   -0.274106|  3.4722e+02|
|         464|   -5.745030|   -0.274593|  3.4722e+02|
|         465|   -5.745491|   -0.275075|  3.4722e+02|
|         466|   -5.745950|   -0.275552|  3.4722e+02|
|         467|   -5.746405|   -0.276024|  3.4722e+02|
|         468|   -5.746858|   -0.276491|  3.4722e+02|
|         469|   -5.747309|   -0.276954|  3.4722e+02|
|         470|   -5.747757|   -0.277413|  3.4722e+02|
|         471|   -5.748204|   -0.277869|  3.4722e+02|
|         472|   -5.748649|   -0.278320|  3.4722e+02|
|         473|   -5.749093|   -0.278769|  3.4722e+02|
|         474|   -5.749535|   -0.279215|  3.4722e+02|
|         475|   -5.749977|   -0.279658|  3.4722e+02|
|         476|   -5.750418|   -0.280099|  3.4722e+02|
|         477|   -5.750859|   -0.280537|  3.4722e+02|
|         478|   -5.751299|   -0.280974|  3.4722e+02|
|         479|   -5.751739|   -0.281410|  3.4722e+02|
|         480|   -5.752180|   -0.281844|  3.4722e+02|
|         481|   -5.752621|   -0.282277|  3.4722e+02|
|         482|   -5.753062|   -0.282710|  3.4722e+02|
|         483|   -5.753504|   -0.283142|  3.4722e+02|
|         484|   -5.753947|   -0.283574|  3.4722e+02|
|         485|   -5.754391|   -0.284006|  3.4722e+02|
|         486|   -5.754837|   -0.284438|  3.4722e+02|
|         487|   -5.755283|   -0.284871|  3.4722e+02|
|         488|   -5.755732|   -0.285304|  3.4722e+02|
|         489|   -5.756181|   -0.285739|  3.4722e+02|
|         490|   -5.756633|   -0.286175|  3.4722e+02|
|         491|   -5.757086|   -0.286612|  3.4722e+02|
|         492|   -5.757541|   -0.287050|  3.4722e+02|
|         493|   -5.757998|   -0.287491|  3.4722e+02|
|         494|   -5.758457|   -0.287933|  3.4722e+02|
|         495|   -5.758918|   -0.288377|  3.4722e+02|
|         496|   -5.759382|   -0.288823|  3.4722e+02|
|         497|   -5.759847|   -0.289272|  3.4722e+02|
|         498|   -5.760315|   -0.289723|  3.4722e+02|
|         499|   -5.760785|   -0.290176|  3.4722e+02|
|         500|   -5.761257|   -0.290632|  3.4722e+02|
|         501|   -5.761731|   -0.291091|  3.4722e+02|
|         502|   -5.762207|   -0.291552|  3.4722e+02|
|         503|   -5.762686|   -0.292016|  3.4722e+02|
|         504|   -5.763166|   -0.292483|  3.4722e+02|
|         505|   -5.763648|   -0.292952|  3.4722e+02|
|         506|   -5.764133|   -0.293425|  3.4722e+02|
|         507|   -5.764619|   -0.293900|  3.4722e+02|
|         508|   -5.765107|   -0.294378|  3.4722e+02|
|         509|   -5.765596|   -0.294859|  3.4722e+02|
|         510|   -5.766087|   -0.295342|  3.4722e+02|
|         511|   -5.766579|   -0.295828|  3.4722e+02|
|         512|   -5.767073|   -0.296317|  3.4722e+02|
|         513|   -5.767567|   -0.296808|  3.4722e+02|
|         514|   -5.768063|   -0.297301|  3.4722e+02|
|         515|   -5.768559|   -0.297797|  3.4722e+02|
|         516|   -5.769056|   -0.298295|  3.4722e+02|
|         517|   -5.769553|   -0.298796|  3.4722e+02|
|         518|   -5.770051|   -0.299298|  3.4722e+02|
|         519|   -5.770549|   -0.299802|  3.4722e+02|
|         520|   -5.771047|   -0.300307|  3.4722e+02|
|         521|   -5.771544|   -0.300814|  3.4722e+02|
|         522|   -5.772041|   -0.301323|  3.4722e+02|
|         523|   -5.772538|   -0.301832|  3.4722e+02|
|         524|   -5.773033|   -0.302343|  3.4722e+02|
|         525|   -5.773527|   -0.302854|  3.4722e+02|
|         526|   -5.774021|   -0.303366|  3.4722e+02|
|         527|   -5.774512|   -0.303878|  3.4722e+02|
|         528|   -5.775002|   -0.304390|  3.4722e+02|
|         529|   -5.775490|   -0.304903|  3.4722e+02|
|         530|   -5.775976|   -0.305415|  3.4722e+02|
|         531|   -5.776459|   -0.305926|  3.4722e+02|
|         532|   -5.776940|   -0.306436|  3.4722e+02|
|         533|   -5.777418|   -0.306946|  3.4722e+02|
|         534|   -5.777893|   -0.307454|  3.4722e+02|
|         535|   -5.778365|   -0.307960|  3.4722e+02|
|         536|   -5.778834|   -0.308465|  3.4722e+02|
|         537|   -5.779299|   -0.308968|  3.4722e+02|
|         538|   -5.779760|   -0.309468|  3.4722e+02|
|         539|   -5.780217|   -0.309966|  3.4722e+02|
|         540|   -5.780670|   -0.310461|  3.4722e+02|
|         541|   -5.781118|   -0.310952|  3.4722e+02|
|         542|   -5.781563|   -0.311441|  3.4722e+02|
|         543|   -5.782002|   -0.311926|  3.4722e+02|
|         544|   -5.782437|   -0.312407|  3.4722e+02|
|         545|   -5.782867|   -0.312883|  3.4722e+02|
|         546|   -5.783291|   -0.313356|  3.4722e+02|
|         547|   -5.783711|   -0.313824|  3.4722e+02|
|         548|   -5.784125|   -0.314287|  3.4722e+02|
|         549|   -5.784534|   -0.314745|  3.4722e+02|
|         550|   -5.784937|   -0.315198|  3.4722e+02|
|         551|   -5.785335|   -0.315645|  3.4722e+02|
|         552|   -5.785727|   -0.316087|  3.4722e+02|
|         553|   -5.786113|   -0.316523|  3.4722e+02|
|         554|   -5.786493|   -0.316953|  3.4722e+02|
|         555|   -5.786868|   -0.317377|  3.4722e+02|
|         556|   -5.787237|   -0.317794|  3.4722e+02|
|         557|   -5.787601|   -0.318206|  3.4722e+02|
|         558|   -5.787959|   -0.318611|  3.4722e+02|
|         559|   -5.788311|   -0.319009|  3.4722e+02|
|         560|   -5.788657|   -0.319401|  3.4722e+02|
|         561|   -5.788998|   -0.319786|  3.4722e+02|
|         562|   -5.789334|   -0.320164|  3.4722e+02|
|         563|   -5.789664|   -0.320536|  3.4722e+02|
|         564|   -5.789989|   -0.320901|  3.4722e+02|
|         565|   -5.790310|   -0.321260|  3.4722e+02|
|         566|   -5.790625|   -0.321612|  3.4722e+02|
|         567|   -5.790936|   -0.321957|  3.4722e+02|
|         568|   -5.791242|   -0.322296|  3.4722e+02|
|         569|   -5.791544|   -0.322629|  3.4722e+02|
|         570|   -5.791842|   -0.322956|  3.4722e+02|
|         571|   -5.792137|   -0.323277|  3.4722e+02|
|         572|   -5.792428|   -0.323592|  3.4722e+02|
|         573|   -5.792716|   -0.323902|  3.4722e+02|
|         574|   -5.793000|   -0.324206|  3.4722e+02|
|         575|   -5.793283|   -0.324506|  3.4722e+02|
|         576|   -5.793563|   -0.324801|  3.4722e+02|
|         577|   -5.793841|   -0.325091|  3.4722e+02|
|         578|   -5.794118|   -0.325377|  3.4722e+02|
|         579|   -5.794394|   -0.325660|  3.4722e+02|
|         580|   -5.794668|   -0.325939|  3.4722e+02|
|         581|   -5.794943|   -0.326215|  3.4722e+02|
|         582|   -5.795217|   -0.326489|  3.4722e+02|
|         583|   -5.795491|   -0.326760|  3.4722e+02|
|         584|   -5.795767|   -0.327030|  3.4722e+02|
|         585|   -5.796043|   -0.327298|  3.4722e+02|
|         586|   -5.796321|   -0.327565|  3.4722e+02|
|         587|   -5.796601|   -0.327832|  3.4722e+02|
|         588|   -5.796883|   -0.328099|  3.4722e+02|
|         589|   -5.797168|   -0.328366|  3.4722e+02|
|         590|   -5.797456|   -0.328635|  3.4722e+02|
|         591|   -5.797748|   -0.328904|  3.4722e+02|
|         592|   -5.798044|   -0.329176|  3.4722e+02|
|         593|   -5.798344|   -0.329450|  3.4722e+02|
|         594|   -5.798648|   -0.329726|  3.4722e+02|
|         595|   -5.798958|   -0.330006|  3.4722e+02|
|         596|   -5.799273|   -0.330290|  3.4722e+02|
|         597|   -5.799594|   -0.330577|  3.4722e+02|
|         598|   -5.799921|   -0.330870|  3.4722e+02|
|         599|   -5.800254|   -0.331167|  3.4722e+02|
|         600|   -5.800594|   -0.331470|  3.4722e+02|
|         601|   -5.800941|   -0.331779|  3.4722e+02|
|         602|   -5.801296|   -0.332094|  3.4722e+02|
|         603|   -5.801658|   -0.332415|  3.4722e+02|
|         604|   -5.802027|   -0.332744|  3.4722e+02|
|         605|   -5.802405|   -0.333080|  3.4722e+02|
|         606|   -5.802791|   -0.333424|  3.4722e+02|
|         607|   -5.803186|   -0.333776|  3.4722e+02|
|         608|   -5.803589|   -0.334136|  3.4722e+02|
|         609|   -5.804001|   -0.334504|  3.4722e+02|
|         610|   -5.804421|   -0.334882|  3.4722e+02|
|         611|   -5.804851|   -0.335268|  3.4722e+02|
|         612|   -5.805290|   -0.335664|  3.4722e+02|
|         613|   -5.805738|   -0.336069|  3.4722e+02|
|         614|   -5.806195|   -0.336484|  3.4722e+02|
|         615|   -5.806661|   -0.336908|  3.4722e+02|
|         616|   -5.807136|   -0.337343|  3.4722e+02|
|         617|   -5.807620|   -0.337787|  3.4722e+02|
|         618|   -5.808114|   -0.338241|  3.4722e+02|
|         619|   -5.808616|   -0.338705|  3.4722e+02|
|         620|   -5.809128|   -0.339180|  3.4722e+02|
|         621|   -5.809648|   -0.339664|  3.4722e+02|
|         622|   -5.810177|   -0.340159|  3.4722e+02|
|         623|   -5.810714|   -0.340663|  3.4722e+02|
|         624|   -5.811259|   -0.341177|  3.4722e+02|
|         625|   -5.811813|   -0.341701|  3.4722e+02|
|         626|   -5.812374|   -0.342235|  3.4722e+02|
|         627|   -5.812943|   -0.342778|  3.4722e+02|
|         628|   -5.813519|   -0.343331|  3.4722e+02|
|         629|   -5.814102|   -0.343893|  3.4722e+02|
|         630|   -5.814692|   -0.344464|  3.4722e+02|
|         631|   -5.815288|   -0.345043|  3.4722e+02|
|         632|   -5.815890|   -0.345632|  3.4722e+02|
|         633|   -5.816498|   -0.346228|  3.4722e+02|
|         634|   -5.817111|   -0.346833|  3.4722e+02|
|         635|   -5.817728|   -0.347445|  3.4722e+02|
|         636|   -5.818350|   -0.348065|  3.4722e+02|
|         637|   -5.818976|   -0.348692|  3.4722e+02|
|         638|   -5.819606|   -0.349325|  3.4722e+02|
|         639|   -5.820238|   -0.349965|  3.4722e+02|
|         640|   -5.820873|   -0.350611|  3.4722e+02|
|         641|   -5.821510|   -0.351263|  3.4722e+02|
|         642|   -5.822149|   -0.351920|  3.4722e+02|
|         643|   -5.822788|   -0.352582|  3.4722e+02|
|         644|   -5.823428|   -0.353249|  3.4722e+02|
|         645|   -5.824068|   -0.353919|  3.4722e+02|
|         646|   -5.824707|   -0.354593|  3.4722e+02|
|         647|   -5.825345|   -0.355271|  3.4722e+02|
|         648|   -5.825982|   -0.355951|  3.4722e+02|
|         649|   -5.826616|   -0.356633|  3.4722e+02|
|         650|   -5.827246|   -0.357317|  3.4722e+02|
|         651|   -5.827874|   -0.358003|  3.4722e+02|
|         652|   -5.828497|   -0.358689|  3.4722e+02|
|         653|   -5.829116|   -0.359375|  3.4722e+02|
|         654|   -5.829729|   -0.360061|  3.4722e+02|
|         655|   -5.830336|   -0.360747|  3.4722e+02|
|         656|   -5.830937|   -0.361431|  3.4722e+02|
|         657|   -5.831530|   -0.362113|  3.4722e+02|
|         658|   -5.832116|   -0.362793|  3.4722e+02|
|         659|   -5.832693|   -0.363470|  3.4722e+02|
|         660|   -5.833261|   -0.364144|  3.4722e+02|
|         661|   -5.833819|   -0.364813|  3.4722e+02|
|         662|   -5.834367|   -0.365477|  3.4722e+02|
|         663|   -5.834905|   -0.366137|  3.4722e+02|
|         664|   -5.835431|   -0.366790|  3.4722e+02|
|         665|   -5.835944|   -0.367437|  3.4722e+02|
|         666|   -5.836445|   -0.368077|  3.4722e+02|
|         667|   -5.836933|   -0.368709|  3.4722e+02|
|         668|   -5.837407|   -0.369332|  3.4722e+02|
|         669|   -5.837867|   -0.369947|  3.4722e+02|
|         670|   -5.838311|   -0.370552|  3.4722e+02|
|         671|   -5.838741|   -0.371147|  3.4722e+02|
|         672|   -5.839154|   -0.371731|  3.4722e+02|
|         673|   -5.839550|   -0.372303|  3.4722e+02|
|         674|   -5.839930|   -0.372863|  3.4722e+02|
|         675|   -5.840292|   -0.373410|  3.4722e+02|
|         676|   -5.840636|   -0.373944|  3.4722e+02|
|         677|   -5.840962|   -0.374464|  3.4722e+02|
|         678|   -5.841269|   -0.374969|  3.4722e+02|
|         679|   -5.841557|   -0.375459|  3.4722e+02|
|         680|   -5.841826|   -0.375933|  3.4722e+02|
|         681|   -5.842075|   -0.376391|  3.4722e+02|
|         682|   -5.842303|   -0.376831|  3.4722e+02|
|         683|   -5.842512|   -0.377254|  3.4722e+02|
|         684|   -5.842699|   -0.377659|  3.4722e+02|
|         685|   -5.842866|   -0.378046|  3.4722e+02|
|         686|   -5.843013|   -0.378413|  3.4722e+02|
|         687|   -5.843138|   -0.378761|  3.4722e+02|
|         688|   -5.843242|   -0.379089|  3.4722e+02|
|         689|   -5.843325|   -0.379397|  3.4722e+02|
|         690|   -5.843388|   -0.379685|  3.4722e+02|
|         691|   -5.843429|   -0.379952|  3.4722e+02|
|         692|   -5.843449|   -0.380197|  3.4722e+02|
|         693|   -5.843449|   -0.380422|  3.4722e+02|
|         694|   -5.843429|   -0.380625|  3.4722e+02|
|         695|   -5.843388|   -0.380806|  3.4722e+02|
|         696|   -5.843327|   -0.380966|  3.4722e+02|
|         697|   -5.843247|   -0.381105|  3.4722e+02|
|         698|   -5.843148|   -0.381222|  3.4722e+02|
|         699|   -5.843031|   -0.381318|  3.4722e+02|
|         700|   -5.842895|   -0.381392|  3.4722e+02|
|         701|   -5.842742|   -0.381446|  3.4722e+02|
|         702|   -5.842571|   -0.381478|  3.4722e+02|
|         703|   -5.842385|   -0.381491|  3.4722e+02|
|         704|   -5.842183|   -0.381483|  3.4722e+02|
|         705|   -5.841966|   -0.381456|  3.4722e+02|
|         706|   -5.841734|   -0.381410|  3.4722e+02|
|         707|   -5.841490|   -0.381346|  3.4722e+02|
|         708|   -5.841233|   -0.381264|  3.4722e+02|
|         709|   -5.840964|   -0.381165|  3.4722e+02|
|         710|   -5.840685|   -0.381049|  3.4722e+02|
|         711|   -5.840396|   -0.380918|  3.4722e+02|
|         712|   -5.840098|   -0.380772|  3.4722e+02|
|         713|   -5.839792|   -0.380612|  3.4722e+02|
|         714|   -5.839479|   -0.380439|  3.4722e+02|
|         715|   -5.839160|   -0.380253|  3.4722e+02|
|         716|   -5.838836|   -0.380057|  3.4722e+02|
|         717|   -5.838509|   -0.379850|  3.4722e+02|
|         718|   -5.838178|   -0.379635|  3.4722e+02|
|         719|   -5.837846|   -0.379411|  3.4722e+02|
|         720|   -5.837513|   -0.379180|  3.4722e+02|
|         721|   -5.837180|   -0.378943|  3.4722e+02|
|         722|   -5.836848|   -0.378701|  3.4722e+02|
|         723|   -5.836518|   -0.378455|  3.4722e+02|
|         724|   -5.836192|   -0.378206|  3.4722e+02|
|         725|   -5.835869|   -0.377956|  3.4722e+02|
|         726|   -5.835552|   -0.377705|  3.4722e+02|
|         727|   -5.835241|   -0.377455|  3.4722e+02|
|         728|   -5.834936|   -0.377206|  3.4722e+02|
|         729|   -5.834639|   -0.376960|  3.4722e+02|
|         730|   -5.834351|   -0.376717|  3.4722e+02|
|         731|   -5.834072|   -0.376479|  3.4722e+02|
|         732|   -5.833804|   -0.376247|  3.4722e+02|
|         733|   -5.833546|   -0.376021|  3.4722e+02|
|         734|   -5.833300|   -0.375803|  3.4722e+02|
|         735|   -5.833067|   -0.375593|  3.4722e+02|
|         736|   -5.832846|   -0.375392|  3.4722e+02|
|         737|   -5.832639|   -0.375201|  3.4722e+02|
|         738|   -5.832446|   -0.375022|  3.4722e+02|
|         739|   -5.832268|   -0.374853|  3.4722e+02|
|         740|   -5.832106|   -0.374697|  3.4722e+02|
|         741|   -5.831959|   -0.374554|  3.4722e+02|
|         742|   -5.831828|   -0.374425|  3.4722e+02|
|         743|   -5.831713|   -0.374310|  3.4722e+02|
|         744|   -5.831616|   -0.374210|  3.4722e+02|
|         745|   -5.831536|   -0.374124|  3.4722e+02|
|         746|   -5.831473|   -0.374055|  3.4722e+02|
|         747|   -5.831428|   -0.374001|  3.4722e+02|
|         748|   -5.831401|   -0.373964|  3.4722e+02|
|         749|   -5.831393|   -0.373944|  3.4722e+02|
|         750|   -5.831402|   -0.373941|  3.4722e+02|
|         751|   -5.831430|   -0.373955|  3.4722e+02|
|         752|   -5.831477|   -0.373987|  3.4722e+02|
|         753|   -5.831542|   -0.374036|  3.4722e+02|
|         754|   -5.831626|   -0.374103|  3.4722e+02|
|         755|   -5.831728|   -0.374188|  3.4722e+02|
|         756|   -5.831849|   -0.374291|  3.4722e+02|
|         757|   -5.831988|   -0.374412|  3.4722e+02|
|         758|   -5.832146|   -0.374551|  3.4722e+02|
|         759|   -5.832322|   -0.374707|  3.4722e+02|
|         760|   -5.832516|   -0.374882|  3.4722e+02|
|         761|   -5.832728|   -0.375074|  3.4722e+02|
|         762|   -5.832958|   -0.375283|  3.4722e+02|
|         763|   -5.833205|   -0.375510|  3.4722e+02|
|         764|   -5.833470|   -0.375754|  3.4722e+02|
|         765|   -5.833752|   -0.376015|  3.4722e+02|
|         766|   -5.834050|   -0.376292|  3.4722e+02|
|         767|   -5.834366|   -0.376586|  3.4722e+02|
|         768|   -5.834697|   -0.376896|  3.4722e+02|
|         769|   -5.835045|   -0.377222|  3.4722e+02|
|         770|   -5.835407|   -0.377563|  3.4722e+02|
|         771|   -5.835786|   -0.377920|  3.4722e+02|
|         772|   -5.836179|   -0.378291|  3.4722e+02|
|         773|   -5.836586|   -0.378677|  3.4722e+02|
|         774|   -5.837007|   -0.379076|  3.4722e+02|
|         775|   -5.837442|   -0.379490|  3.4722e+02|
|         776|   -5.837890|   -0.379917|  3.4722e+02|
|         777|   -5.838351|   -0.380356|  3.4722e+02|
|         778|   -5.838824|   -0.380809|  3.4722e+02|
|         779|   -5.839309|   -0.381273|  3.4722e+02|
|         780|   -5.839805|   -0.381749|  3.4722e+02|
|         781|   -5.840312|   -0.382237|  3.4722e+02|
|         782|   -5.840829|   -0.382735|  3.4722e+02|
|         783|   -5.841356|   -0.383245|  3.4722e+02|
|         784|   -5.841893|   -0.383764|  3.4722e+02|
|         785|   -5.842437|   -0.384293|  3.4722e+02|
|         786|   -5.842991|   -0.384831|  3.4722e+02|
|         787|   -5.843551|   -0.385378|  3.4722e+02|
|         788|   -5.844119|   -0.385934|  3.4722e+02|
|         789|   -5.844694|   -0.386498|  3.4722e+02|
|         790|   -5.845274|   -0.387070|  3.4722e+02|
|         791|   -5.845860|   -0.387649|  3.4722e+02|
|         792|   -5.846450|   -0.388236|  3.4722e+02|
|         793|   -5.847045|   -0.388829|  3.4722e+02|
|         794|   -5.847644|   -0.389429|  3.4722e+02|
|         795|   -5.848246|   -0.390035|  3.4722e+02|
|         796|   -5.848850|   -0.390646|  3.4722e+02|
|         797|   -5.849456|   -0.391263|  3.4722e+02|
|         798|   -5.850064|   -0.391886|  3.4722e+02|
|         799|   -5.850673|   -0.392513|  3.4722e+02|
|         800|   -5.851282|   -0.393145|  3.4722e+02|
|         801|   -5.851891|   -0.393781|  3.4722e+02|
|         802|   -5.852499|   -0.394421|  3.4722e+02|
|         803|   -5.853106|   -0.395065|  3.4722e+02|
|         804|   -5.853711|   -0.395712|  3.4722e+02|
|         805|   -5.854313|   -0.396363|  3.4722e+02|
|         806|   -5.854913|   -0.397016|  3.4722e+02|
|         807|   -5.855509|   -0.397672|  3.4722e+02|
|         808|   -5.856102|   -0.398331|  3.4722e+02|
|         809|   -5.856689|   -0.398991|  3.4722e+02|
|         810|   -5.857272|   -0.399654|  3.4722e+02|
|         811|   -5.857850|   -0.400318|  3.4722e+02|
|         812|   -5.858421|   -0.400984|  3.4722e+02|
|         813|   -5.858986|   -0.401650|  3.4722e+02|
|         814|   -5.859544|   -0.402318|  3.4722e+02|
|         815|   -5.860094|   -0.402985|  3.4722e+02|
|         816|   -5.860637|   -0.403653|  3.4722e+02|
|         817|   -5.861171|   -0.404321|  3.4722e+02|
|         818|   -5.861696|   -0.404989|  3.4722e+02|
|         819|   -5.862213|   -0.405655|  3.4722e+02|
|         820|   -5.862719|   -0.406321|  3.4722e+02|
|         821|   -5.863215|   -0.406985|  3.4722e+02|
|         822|   -5.863701|   -0.407647|  3.4722e+02|
|         823|   -5.864176|   -0.408307|  3.4722e+02|
|         824|   -5.864639|   -0.408964|  3.4722e+02|
|         825|   -5.865090|   -0.409618|  3.4722e+02|
|         826|   -5.865529|   -0.410268|  3.4722e+02|
|         827|   -5.865956|   -0.410915|  3.4722e+02|
|         828|   -5.866369|   -0.411557|  3.4722e+02|
|         829|   -5.866769|   -0.412194|  3.4722e+02|
|         830|   -5.867156|   -0.412825|  3.4722e+02|
|         831|   -5.867528|   -0.413451|  3.4722e+02|
|         832|   -5.867886|   -0.414070|  3.4722e+02|
|         833|   -5.868229|   -0.414682|  3.4722e+02|
|         834|   -5.868556|   -0.415286|  3.4722e+02|
|         835|   -5.868869|   -0.415882|  3.4722e+02|
|         836|   -5.869165|   -0.416470|  3.4722e+02|
|         837|   -5.869446|   -0.417047|  3.4722e+02|
|         838|   -5.869710|   -0.417615|  3.4722e+02|
|         839|   -5.869958|   -0.418173|  3.4722e+02|
|         840|   -5.870189|   -0.418719|  3.4722e+02|
|         841|   -5.870403|   -0.419253|  3.4722e+02|
|         842|   -5.870600|   -0.419775|  3.4722e+02|
|         843|   -5.870779|   -0.420284|  3.4722e+02|
|         844|   -5.870941|   -0.420780|  3.4722e+02|
|         845|   -5.871085|   -0.421261|  3.4722e+02|
|         846|   -5.871212|   -0.421728|  3.4722e+02|
|         847|   -5.871321|   -0.422180|  3.4722e+02|
|         848|   -5.871412|   -0.422615|  3.4722e+02|
|         849|   -5.871485|   -0.423035|  3.4722e+02|
|         850|   -5.871540|   -0.423438|  3.4722e+02|
|         851|   -5.871578|   -0.423823|  3.4722e+02|
|         852|   -5.871597|   -0.424191|  3.4722e+02|
|         853|   -5.871600|   -0.424541|  3.4722e+02|
|         854|   -5.871585|   -0.424873|  3.4722e+02|
|         855|   -5.871552|   -0.425186|  3.4722e+02|
|         856|   -5.871503|   -0.425480|  3.4722e+02|
|         857|   -5.871437|   -0.425755|  3.4722e+02|
|         858|   -5.871354|   -0.426011|  3.4722e+02|
|         859|   -5.871255|   -0.426247|  3.4722e+02|
|         860|   -5.871141|   -0.426464|  3.4722e+02|
|         861|   -5.871011|   -0.426661|  3.4722e+02|
|         862|   -5.870866|   -0.426839|  3.4722e+02|
|         863|   -5.870707|   -0.426997|  3.4722e+02|
|         864|   -5.870533|   -0.427136|  3.4722e+02|
|         865|   -5.870347|   -0.427256|  3.4722e+02|
|         866|   -5.870147|   -0.427357|  3.4722e+02|
|         867|   -5.869935|   -0.427439|  3.4722e+02|
|         868|   -5.869712|   -0.427504|  3.4722e+02|
|         869|   -5.869477|   -0.427550|  3.4722e+02|
|         870|   -5.869233|   -0.427579|  3.4722e+02|
|         871|   -5.868979|   -0.427591|  3.4722e+02|
|         872|   -5.868716|   -0.427588|  3.4722e+02|
|         873|   -5.868445|   -0.427568|  3.4722e+02|
|         874|   -5.868167|   -0.427534|  3.4722e+02|
|         875|   -5.867883|   -0.427485|  3.4722e+02|
|         876|   -5.867593|   -0.427423|  3.4722e+02|
|         877|   -5.867299|   -0.427348|  3.4722e+02|
|         878|   -5.867000|   -0.427262|  3.4722e+02|
|         879|   -5.866699|   -0.427164|  3.4722e+02|
|         880|   -5.866396|   -0.427057|  3.4722e+02|
|         881|   -5.866092|   -0.426941|  3.4722e+02|
|         882|   -5.865787|   -0.426817|  3.4722e+02|
|         883|   -5.865483|   -0.426686|  3.4722e+02|
|         884|   -5.865181|   -0.426548|  3.4722e+02|
|         885|   -5.864881|   -0.426406|  3.4722e+02|
|         886|   -5.864584|   -0.426260|  3.4722e+02|
|         887|   -5.864292|   -0.426112|  3.4722e+02|
|         888|   -5.864005|   -0.425962|  3.4722e+02|
|         889|   -5.863723|   -0.425811|  3.4722e+02|
|         890|   -5.863449|   -0.425660|  3.4722e+02|
|         891|   -5.863182|   -0.425512|  3.4722e+02|
|         892|   -5.862924|   -0.425365|  3.4722e+02|
|         893|   -5.862675|   -0.425223|  3.4722e+02|
|         894|   -5.862436|   -0.425086|  3.4722e+02|
|         895|   -5.862208|   -0.424954|  3.4722e+02|
|         896|   -5.861991|   -0.424829|  3.4722e+02|
|         897|   -5.861787|   -0.424712|  3.4722e+02|
|         898|   -5.861595|   -0.424604|  3.4722e+02|
|         899|   -5.861417|   -0.424506|  3.4722e+02|
|         900|   -5.861253|   -0.424419|  3.4722e+02|
|         901|   -5.861104|   -0.424343|  3.4722e+02|
|         902|   -5.860971|   -0.424279|  3.4722e+02|
|         903|   -5.860853|   -0.424230|  3.4722e+02|
|         904|   -5.860751|   -0.424194|  3.4722e+02|
|         905|   -5.860667|   -0.424173|  3.4722e+02|
|         906|   -5.860600|   -0.424168|  3.4722e+02|
|         907|   -5.860550|   -0.424179|  3.4722e+02|
|         908|   -5.860519|   -0.424207|  3.4722e+02|
|         909|   -5.860506|   -0.424253|  3.4722e+02|
|         910|   -5.860512|   -0.424317|  3.4722e+02|
|         911|   -5.860537|   -0.424400|  3.4722e+02|
|         912|   -5.860581|   -0.424502|  3.4722e+02|
|         913|   -5.860645|   -0.424623|  3.4722e+02|
|         914|   -5.860729|   -0.424765|  3.4722e+02|
|         915|   -5.860832|   -0.424926|  3.4722e+02|
|         916|   -5.860956|   -0.425109|  3.4722e+02|
|         917|   -5.861101|   -0.425313|  3.4722e+02|
|         918|   -5.861266|   -0.425537|  3.4722e+02|
|         919|   -5.861451|   -0.425784|  3.4722e+02|
|         920|   -5.861657|   -0.426052|  3.4722e+02|
|         921|   -5.861884|   -0.426341|  3.4722e+02|
|         922|   -5.862132|   -0.426653|  3.4722e+02|
|         923|   -5.862400|   -0.426986|  3.4722e+02|
|         924|   -5.862689|   -0.427341|  3.4722e+02|
|         925|   -5.862999|   -0.427718|  3.4722e+02|
|         926|   -5.863330|   -0.428118|  3.4722e+02|
|         927|   -5.863682|   -0.428538|  3.4722e+02|
|         928|   -5.864054|   -0.428981|  3.4722e+02|
|         929|   -5.864447|   -0.429445|  3.4722e+02|
|         930|   -5.864860|   -0.429931|  3.4722e+02|
|         931|   -5.865294|   -0.430438|  3.4722e+02|
|         932|   -5.865748|   -0.430966|  3.4722e+02|
|         933|   -5.866223|   -0.431515|  3.4722e+02|
|         934|   -5.866718|   -0.432084|  3.4722e+02|
|         935|   -5.867233|   -0.432674|  3.4722e+02|
|         936|   -5.867768|   -0.433284|  3.4722e+02|
|         937|   -5.868322|   -0.433913|  3.4722e+02|
|         938|   -5.868896|   -0.434562|  3.4722e+02|
|         939|   -5.869490|   -0.435231|  3.4722e+02|
|         940|   -5.870103|   -0.435917|  3.4722e+02|
|         941|   -5.870735|   -0.436623|  3.4722e+02|
|         942|   -5.871387|   -0.437346|  3.4722e+02|
|         943|   -5.872056|   -0.438087|  3.4722e+02|
|         944|   -5.872745|   -0.438846|  3.4722e+02|
|         945|   -5.873452|   -0.439621|  3.4722e+02|
|         946|   -5.874177|   -0.440413|  3.4722e+02|
|         947|   -5.874920|   -0.441220|  3.4722e+02|
|         948|   -5.875680|   -0.442044|  3.4722e+02|
|         949|   -5.876458|   -0.442883|  3.4722e+02|
|         950|   -5.877253|   -0.443736|  3.4722e+02|
|         951|   -5.878065|   -0.444604|  3.4722e+02|
|         952|   -5.878893|   -0.445486|  3.4722e+02|
|         953|   -5.879737|   -0.446382|  3.4722e+02|
|         954|   -5.880598|   -0.447290|  3.4722e+02|
|         955|   -5.881474|   -0.448212|  3.4722e+02|
|         956|   -5.882365|   -0.449145|  3.4722e+02|
|         957|   -5.883270|   -0.450091|  3.4722e+02|
|         958|   -5.884191|   -0.451048|  3.4722e+02|
|         959|   -5.885125|   -0.452016|  3.4722e+02|
|         960|   -5.886072|   -0.452995|  3.4722e+02|
|         961|   -5.887033|   -0.453983|  3.4722e+02|
|         962|   -5.888007|   -0.454982|  3.4722e+02|
|         963|   -5.888992|   -0.455990|  3.4722e+02|
|         964|   -5.889989|   -0.457007|  3.4722e+02|
|         965|   -5.890997|   -0.458033|  3.4722e+02|
|         966|   -5.892016|   -0.459067|  3.4722e+02|
|         967|   -5.893045|   -0.460109|  3.4722e+02|
|         968|   -5.894083|   -0.461158|  3.4722e+02|
|         969|   -5.895130|   -0.462214|  3.4722e+02|
|         970|   -5.896185|   -0.463277|  3.4722e+02|
|         971|   -5.897247|   -0.464347|  3.4722e+02|
|         972|   -5.898317|   -0.465423|  3.4722e+02|
|         973|   -5.899392|   -0.466504|  3.4722e+02|
|         974|   -5.900473|   -0.467590|  3.4722e+02|
|         975|   -5.901559|   -0.468682|  3.4722e+02|
|         976|   -5.902649|   -0.469778|  3.4722e+02|
|         977|   -5.903742|   -0.470879|  3.4722e+02|
|         978|   -5.904838|   -0.471983|  3.4722e+02|
|         979|   -5.905935|   -0.473091|  3.4722e+02|
|         980|   -5.907034|   -0.474203|  3.4722e+02|
|         981|   -5.908132|   -0.475317|  3.4722e+02|
|         982|   -5.909230|   -0.476435|  3.4722e+02|
|         983|   -5.910326|   -0.477554|  3.4722e+02|
|         984|   -5.911420|   -0.478676|  3.4722e+02|
|         985|   -5.912511|   -0.479799|  3.4722e+02|
|         986|   -5.913597|   -0.480924|  3.4722e+02|
|         987|   -5.914679|   -0.482049|  3.4722e+02|
|         988|   -5.915754|   -0.483176|  3.4722e+02|
|         989|   -5.916823|   -0.484302|  3.4722e+02|
|         990|   -5.917884|   -0.485429|  3.4722e+02|
|         991|   -5.918937|   -0.486555|  3.4722e+02|
|         992|   -5.919980|   -0.487680|  3.4722e+02|
|         993|   -5.921012|   -0.488804|  3.4722e+02|
|         994|   -5.922033|   -0.489926|  3.4722e+02|
|         995|   -5.923042|   -0.491046|  3.4722e+02|
|         996|   -5.924038|   -0.492164|  3.4722e+02|
|         997|   -5.925019|   -0.493279|  3.4722e+02|
|         998|   -5.925985|   -0.494390|  3.4722e+02|
|         999|   -5.926935|   -0.495497|  3.4722e+02|
|        1000|   -5.927868|   -0.496601|  3.4722e+02|
+-----------------------------------------------------------------------+
|        File Writing Summary       |              Filename             |
+-----------------------------------------------------------------------+
|SU2 binary restart                 |restart_flow.dat                   |
|Paraview                           |flow.vtu                           |
|Paraview surface                   |surface_flow.vtu                   |
+-----------------------------------------------------------------------+
+---------------------------------------------------+
|  Inner_Iter|    rms[Rho]|   rms[RhoE]|       Avg_a|
+---------------------------------------------------+
|        1001|   -5.928784|   -0.497699|  3.4722e+02|
|        1002|   -5.929680|   -0.498792|  3.4722e+02|
|        1003|   -5.930557|   -0.499879|  3.4722e+02|
|        1004|   -5.931414|   -0.500959|  3.4722e+02|
|        1005|   -5.932249|   -0.502032|  3.4722e+02|
|        1006|   -5.933062|   -0.503098|  3.4722e+02|
|        1007|   -5.933852|   -0.504156|  3.4722e+02|
|        1008|   -5.934618|   -0.505205|  3.4722e+02|
|        1009|   -5.935359|   -0.506245|  3.4722e+02|
|        1010|   -5.936076|   -0.507275|  3.4722e+02|
|        1011|   -5.936766|   -0.508295|  3.4722e+02|
|        1012|   -5.937431|   -0.509303|  3.4722e+02|
|        1013|   -5.938067|   -0.510300|  3.4722e+02|
|        1014|   -5.938677|   -0.511284|  3.4722e+02|
|        1015|   -5.939258|   -0.512256|  3.4722e+02|
|        1016|   -5.939810|   -0.513214|  3.4722e+02|
|        1017|   -5.940334|   -0.514158|  3.4722e+02|
|        1018|   -5.940827|   -0.515088|  3.4722e+02|
|        1019|   -5.941292|   -0.516002|  3.4722e+02|
|        1020|   -5.941726|   -0.516901|  3.4722e+02|
|        1021|   -5.942130|   -0.517783|  3.4722e+02|
|        1022|   -5.942504|   -0.518649|  3.4722e+02|
|        1023|   -5.942847|   -0.519497|  3.4722e+02|
|        1024|   -5.943161|   -0.520328|  3.4722e+02|
|        1025|   -5.943444|   -0.521141|  3.4722e+02|
|        1026|   -5.943697|   -0.521936|  3.4722e+02|
|        1027|   -5.943920|   -0.522711|  3.4722e+02|
|        1028|   -5.944114|   -0.523468|  3.4722e+02|
|        1029|   -5.944278|   -0.524204|  3.4722e+02|
|        1030|   -5.944413|   -0.524922|  3.4722e+02|
|        1031|   -5.944521|   -0.525619|  3.4722e+02|
|        1032|   -5.944600|   -0.526296|  3.4722e+02|
|        1033|   -5.944652|   -0.526953|  3.4722e+02|
|        1034|   -5.944678|   -0.527589|  3.4722e+02|
|        1035|   -5.944678|   -0.528205|  3.4722e+02|
|        1036|   -5.944652|   -0.528800|  3.4722e+02|
|        1037|   -5.944603|   -0.529375|  3.4722e+02|
|        1038|   -5.944531|   -0.529929|  3.4722e+02|
|        1039|   -5.944436|   -0.530463|  3.4722e+02|
|        1040|   -5.944319|   -0.530977|  3.4722e+02|
|        1041|   -5.944183|   -0.531471|  3.4722e+02|
|        1042|   -5.944027|   -0.531946|  3.4722e+02|
|        1043|   -5.943852|   -0.532400|  3.4722e+02|
|        1044|   -5.943661|   -0.532836|  3.4722e+02|
|        1045|   -5.943454|   -0.533253|  3.4722e+02|
|        1046|   -5.943232|   -0.533651|  3.4722e+02|
|        1047|   -5.942997|   -0.534031|  3.4722e+02|
|        1048|   -5.942749|   -0.534393|  3.4722e+02|
|        1049|   -5.942490|   -0.534739|  3.4722e+02|
|        1050|   -5.942221|   -0.535067|  3.4722e+02|
|        1051|   -5.941944|   -0.535380|  3.4722e+02|
|        1052|   -5.941658|   -0.535677|  3.4722e+02|
|        1053|   -5.941367|   -0.535958|  3.4722e+02|
|        1054|   -5.941070|   -0.536226|  3.4722e+02|
|        1055|   -5.940770|   -0.536479|  3.4722e+02|
|        1056|   -5.940466|   -0.536719|  3.4722e+02|
|        1057|   -5.940161|   -0.536946|  3.4722e+02|
|        1058|   -5.939855|   -0.537161|  3.4722e+02|
|        1059|   -5.939550|   -0.537364|  3.4722e+02|
|        1060|   -5.939246|   -0.537556|  3.4722e+02|
|        1061|   -5.938945|   -0.537738|  3.4722e+02|
|        1062|   -5.938647|   -0.537910|  3.4722e+02|
|        1063|   -5.938354|   -0.538073|  3.4722e+02|
|        1064|   -5.938065|   -0.538226|  3.4722e+02|
|        1065|   -5.937783|   -0.538372|  3.4722e+02|
|        1066|   -5.937508|   -0.538510|  3.4722e+02|
|        1067|   -5.937240|   -0.538641|  3.4722e+02|
|        1068|   -5.936981|   -0.538766|  3.4722e+02|
|        1069|   -5.936730|   -0.538884|  3.4722e+02|
|        1070|   -5.936489|   -0.538996|  3.4722e+02|
|        1071|   -5.936258|   -0.539103|  3.4722e+02|
|        1072|   -5.936037|   -0.539205|  3.4722e+02|
|        1073|   -5.935828|   -0.539303|  3.4722e+02|
|        1074|   -5.935629|   -0.539396|  3.4722e+02|
|        1075|   -5.935442|   -0.539485|  3.4722e+02|
|        1076|   -5.935268|   -0.539571|  3.4722e+02|
|        1077|   -5.935105|   -0.539653|  3.4722e+02|
|        1078|   -5.934954|   -0.539732|  3.4722e+02|
|        1079|   -5.934816|   -0.539809|  3.4722e+02|
|        1080|   -5.934691|   -0.539882|  3.4722e+02|
|        1081|   -5.934578|   -0.539953|  3.4722e+02|
|        1082|   -5.934478|   -0.540021|  3.4722e+02|
|        1083|   -5.934390|   -0.540087|  3.4722e+02|
|        1084|   -5.934314|   -0.540150|  3.4722e+02|
|        1085|   -5.934251|   -0.540211|  3.4722e+02|
|        1086|   -5.934200|   -0.540270|  3.4722e+02|
|        1087|   -5.934161|   -0.540326|  3.4722e+02|
|        1088|   -5.934133|   -0.540380|  3.4722e+02|
|        1089|   -5.934117|   -0.540432|  3.4722e+02|
|        1090|   -5.934112|   -0.540482|  3.4722e+02|
|        1091|   -5.934117|   -0.540529|  3.4722e+02|
|        1092|   -5.934134|   -0.540573|  3.4722e+02|
|        1093|   -5.934160|   -0.540615|  3.4722e+02|
|        1094|   -5.934196|   -0.540655|  3.4722e+02|
|        1095|   -5.934242|   -0.540691|  3.4722e+02|
|        1096|   -5.934296|   -0.540725|  3.4722e+02|
|        1097|   -5.934359|   -0.540756|  3.4722e+02|
|        1098|   -5.934430|   -0.540783|  3.4722e+02|
|        1099|   -5.934508|   -0.540808|  3.4722e+02|
|        1100|   -5.934594|   -0.540829|  3.4722e+02|
|        1101|   -5.934687|   -0.540847|  3.4722e+02|
|        1102|   -5.934786|   -0.540862|  3.4722e+02|
|        1103|   -5.934891|   -0.540873|  3.4722e+02|
|        1104|   -5.935001|   -0.540880|  3.4722e+02|
|        1105|   -5.935117|   -0.540884|  3.4722e+02|
|        1106|   -5.935237|   -0.540884|  3.4722e+02|
|        1107|   -5.935362|   -0.540880|  3.4722e+02|
|        1108|   -5.935490|   -0.540873|  3.4722e+02|
|        1109|   -5.935622|   -0.540862|  3.4722e+02|
|        1110|   -5.935756|   -0.540847|  3.4722e+02|
|        1111|   -5.935894|   -0.540828|  3.4722e+02|
|        1112|   -5.936034|   -0.540806|  3.4722e+02|
|        1113|   -5.936176|   -0.540780|  3.4722e+02|
|        1114|   -5.936319|   -0.540751|  3.4722e+02|
|        1115|   -5.936464|   -0.540718|  3.4722e+02|
|        1116|   -5.936611|   -0.540682|  3.4722e+02|
|        1117|   -5.936758|   -0.540643|  3.4722e+02|
|        1118|   -5.936905|   -0.540600|  3.4722e+02|
|        1119|   -5.937054|   -0.540555|  3.4722e+02|
|        1120|   -5.937202|   -0.540506|  3.4722e+02|
|        1121|   -5.937351|   -0.540456|  3.4722e+02|
|        1122|   -5.937499|   -0.540403|  3.4722e+02|
|        1123|   -5.937647|   -0.540347|  3.4722e+02|
|        1124|   -5.937795|   -0.540290|  3.4722e+02|
|        1125|   -5.937943|   -0.540231|  3.4722e+02|
|        1126|   -5.938090|   -0.540171|  3.4722e+02|
|        1127|   -5.938236|   -0.540110|  3.4722e+02|
|        1128|   -5.938381|   -0.540047|  3.4722e+02|
|        1129|   -5.938526|   -0.539985|  3.4722e+02|
|        1130|   -5.938670|   -0.539921|  3.4722e+02|
|        1131|   -5.938814|   -0.539858|  3.4722e+02|
|        1132|   -5.938956|   -0.539796|  3.4722e+02|
|        1133|   -5.939098|   -0.539733|  3.4722e+02|
|        1134|   -5.939240|   -0.539672|  3.4722e+02|
|        1135|   -5.939380|   -0.539612|  3.4722e+02|
|        1136|   -5.939520|   -0.539554|  3.4722e+02|
|        1137|   -5.939660|   -0.539498|  3.4722e+02|
|        1138|   -5.939799|   -0.539443|  3.4722e+02|
|        1139|   -5.939938|   -0.539392|  3.4722e+02|
|        1140|   -5.940077|   -0.539343|  3.4722e+02|
|        1141|   -5.940216|   -0.539297|  3.4722e+02|
|        1142|   -5.940355|   -0.539255|  3.4722e+02|
|        1143|   -5.940494|   -0.539217|  3.4722e+02|
|        1144|   -5.940633|   -0.539182|  3.4722e+02|
|        1145|   -5.940773|   -0.539153|  3.4722e+02|
|        1146|   -5.940913|   -0.539127|  3.4722e+02|
|        1147|   -5.941055|   -0.539107|  3.4722e+02|
|        1148|   -5.941197|   -0.539092|  3.4722e+02|
|        1149|   -5.941340|   -0.539083|  3.4722e+02|
|        1150|   -5.941485|   -0.539079|  3.4722e+02|
|        1151|   -5.941631|   -0.539081|  3.4722e+02|
|        1152|   -5.941779|   -0.539090|  3.4722e+02|
|        1153|   -5.941929|   -0.539105|  3.4722e+02|
|        1154|   -5.942081|   -0.539127|  3.4722e+02|
|        1155|   -5.942235|   -0.539156|  3.4722e+02|
|        1156|   -5.942392|   -0.539192|  3.4722e+02|
|        1157|   -5.942551|   -0.539235|  3.4722e+02|
|        1158|   -5.942714|   -0.539286|  3.4722e+02|
|        1159|   -5.942879|   -0.539345|  3.4722e+02|
|        1160|   -5.943049|   -0.539412|  3.4722e+02|
|        1161|   -5.943221|   -0.539487|  3.4722e+02|
|        1162|   -5.943398|   -0.539570|  3.4722e+02|
|        1163|   -5.943579|   -0.539661|  3.4722e+02|
|        1164|   -5.943764|   -0.539762|  3.4722e+02|
|        1165|   -5.943954|   -0.539871|  3.4722e+02|
|        1166|   -5.944149|   -0.539989|  3.4722e+02|
|        1167|   -5.944349|   -0.540115|  3.4722e+02|
|        1168|   -5.944555|   -0.540251|  3.4722e+02|
|        1169|   -5.944766|   -0.540397|  3.4722e+02|
|        1170|   -5.944983|   -0.540551|  3.4722e+02|
|        1171|   -5.945207|   -0.540716|  3.4722e+02|
|        1172|   -5.945437|   -0.540889|  3.4722e+02|
|        1173|   -5.945674|   -0.541073|  3.4722e+02|
|        1174|   -5.945919|   -0.541266|  3.4722e+02|
|        1175|   -5.946170|   -0.541469|  3.4722e+02|
|        1176|   -5.946430|   -0.541681|  3.4722e+02|
|        1177|   -5.946697|   -0.541904|  3.4722e+02|
|        1178|   -5.946973|   -0.542137|  3.4722e+02|
|        1179|   -5.947257|   -0.542379|  3.4722e+02|
|        1180|   -5.947550|   -0.542632|  3.4722e+02|
|        1181|   -5.947852|   -0.542895|  3.4722e+02|
|        1182|   -5.948164|   -0.543168|  3.4722e+02|
|        1183|   -5.948485|   -0.543451|  3.4722e+02|
|        1184|   -5.948817|   -0.543745|  3.4722e+02|
|        1185|   -5.949158|   -0.544048|  3.4722e+02|
|        1186|   -5.949510|   -0.544362|  3.4722e+02|
|        1187|   -5.949873|   -0.544685|  3.4722e+02|
|        1188|   -5.950246|   -0.545019|  3.4722e+02|
|        1189|   -5.950631|   -0.545363|  3.4722e+02|
|        1190|   -5.951027|   -0.545716|  3.4722e+02|
|        1191|   -5.951435|   -0.546080|  3.4722e+02|
|        1192|   -5.951854|   -0.546453|  3.4722e+02|
|        1193|   -5.952285|   -0.546837|  3.4722e+02|
|        1194|   -5.952729|   -0.547229|  3.4722e+02|
|        1195|   -5.953184|   -0.547632|  3.4722e+02|
|        1196|   -5.953652|   -0.548043|  3.4722e+02|
|        1197|   -5.954132|   -0.548464|  3.4722e+02|
|        1198|   -5.954625|   -0.548894|  3.4722e+02|
|        1199|   -5.955130|   -0.549333|  3.4722e+02|
|        1200|   -5.955648|   -0.549780|  3.4722e+02|
|        1201|   -5.956178|   -0.550236|  3.4722e+02|
|        1202|   -5.956721|   -0.550700|  3.4722e+02|
|        1203|   -5.957276|   -0.551172|  3.4722e+02|
|        1204|   -5.957844|   -0.551652|  3.4722e+02|
|        1205|   -5.958424|   -0.552140|  3.4722e+02|
|        1206|   -5.959017|   -0.552634|  3.4722e+02|
|        1207|   -5.959621|   -0.553136|  3.4722e+02|
|        1208|   -5.960238|   -0.553644|  3.4722e+02|
|        1209|   -5.960866|   -0.554159|  3.4722e+02|
[...]
|       13344|   -9.917224|   -5.453102|  3.4722e+02|
|       13345|   -9.917342|   -5.453169|  3.4722e+02|
|       13346|   -9.917461|   -5.453236|  3.4722e+02|
|       13347|   -9.917579|   -5.453302|  3.4722e+02|
|       13348|   -9.917697|   -5.453368|  3.4722e+02|
|       13349|   -9.917816|   -5.453435|  3.4722e+02|
|       13350|   -9.917934|   -5.453502|  3.4722e+02|
|       13351|   -9.918053|   -5.453567|  3.4722e+02|
|       13352|   -9.918171|   -5.453635|  3.4722e+02|
|       13353|   -9.918290|   -5.453701|  3.4722e+02|
|       13354|   -9.918408|   -5.453767|  3.4722e+02|
|       13355|   -9.918527|   -5.453833|  3.4722e+02|
|       13356|   -9.918645|   -5.453899|  3.4722e+02|
|       13357|   -9.918764|   -5.453965|  3.4722e+02|
|       13358|   -9.918882|   -5.454031|  3.4722e+02|
|       13359|   -9.919001|   -5.454098|  3.4722e+02|
|       13360|   -9.919119|   -5.454163|  3.4722e+02|
|       13361|   -9.919238|   -5.454230|  3.4722e+02|
|       13362|   -9.919356|   -5.454295|  3.4722e+02|
|       13363|   -9.919474|   -5.454361|  3.4722e+02|
|       13364|   -9.919593|   -5.454426|  3.4722e+02|
|       13365|   -9.919711|   -5.454492|  3.4722e+02|
|       13366|   -9.919830|   -5.454558|  3.4722e+02|
|       13367|   -9.919948|   -5.454623|  3.4722e+02|
|       13368|   -9.920067|   -5.454688|  3.4722e+02|
|       13369|   -9.920185|   -5.454754|  3.4722e+02|
|       13370|   -9.920304|   -5.454819|  3.4722e+02|
|       13371|   -9.920422|   -5.454885|  3.4722e+02|
|       13372|   -9.920540|   -5.454949|  3.4722e+02|
|       13373|   -9.920659|   -5.455015|  3.4722e+02|
|       13374|   -9.920777|   -5.455081|  3.4722e+02|
|       13375|   -9.920896|   -5.455145|  3.4722e+02|
|       13376|   -9.921014|   -5.455210|  3.4722e+02|
|       13377|   -9.921133|   -5.455276|  3.4722e+02|
|       13378|   -9.921251|   -5.455340|  3.4722e+02|
|       13379|   -9.921369|   -5.455405|  3.4722e+02|
|       13380|   -9.921488|   -5.455469|  3.4722e+02|
|       13381|   -9.921606|   -5.455535|  3.4722e+02|
|       13382|   -9.921725|   -5.455600|  3.4722e+02|
|       13383|   -9.921843|   -5.455664|  3.4722e+02|
|       13384|   -9.921962|   -5.455729|  3.4722e+02|
|       13385|   -9.922080|   -5.455793|  3.4722e+02|
|       13386|   -9.922198|   -5.455858|  3.4722e+02|
|       13387|   -9.922317|   -5.455922|  3.4722e+02|
|       13388|   -9.922435|   -5.455987|  3.4722e+02|
|       13389|   -9.922554|   -5.456050|  3.4722e+02|
|       13390|   -9.922672|   -5.456115|  3.4722e+02|
|       13391|   -9.922791|   -5.456179|  3.4722e+02|
|       13392|   -9.922909|   -5.456244|  3.4722e+02|
|       13393|   -9.923027|   -5.456307|  3.4722e+02|
|       13394|   -9.923146|   -5.456372|  3.4722e+02|
|       13395|   -9.923264|   -5.456436|  3.4722e+02|
|       13396|   -9.923383|   -5.456500|  3.4722e+02|
|       13397|   -9.923501|   -5.456563|  3.4722e+02|
|       13398|   -9.923619|   -5.456628|  3.4722e+02|
|       13399|   -9.923738|   -5.456691|  3.4722e+02|
|       13400|   -9.923856|   -5.456754|  3.4722e+02|
|       13401|   -9.923975|   -5.456819|  3.4722e+02|
|       13402|   -9.924093|   -5.456882|  3.4722e+02|
|       13403|   -9.924211|   -5.456946|  3.4722e+02|
|       13404|   -9.924330|   -5.457009|  3.4722e+02|
|       13405|   -9.924448|   -5.457073|  3.4722e+02|
|       13406|   -9.924567|   -5.457136|  3.4722e+02|
|       13407|   -9.924685|   -5.457199|  3.4722e+02|
|       13408|   -9.924803|   -5.457263|  3.4722e+02|
|       13409|   -9.924922|   -5.457326|  3.4722e+02|
|       13410|   -9.925040|   -5.457389|  3.4722e+02|
|       13411|   -9.925159|   -5.457453|  3.4722e+02|
|       13412|   -9.925277|   -5.457516|  3.4722e+02|
|       13413|   -9.925395|   -5.457579|  3.4722e+02|
|       13414|   -9.925514|   -5.457642|  3.4722e+02|
|       13415|   -9.925632|   -5.457705|  3.4722e+02|
|       13416|   -9.925750|   -5.457767|  3.4722e+02|
|       13417|   -9.925869|   -5.457831|  3.4722e+02|
|       13418|   -9.925987|   -5.457893|  3.4722e+02|
|       13419|   -9.926106|   -5.457956|  3.4722e+02|
|       13420|   -9.926224|   -5.458019|  3.4722e+02|
|       13421|   -9.926342|   -5.458081|  3.4722e+02|
|       13422|   -9.926461|   -5.458144|  3.4722e+02|
|       13423|   -9.926579|   -5.458207|  3.4722e+02|
|       13424|   -9.926697|   -5.458269|  3.4722e+02|
|       13425|   -9.926816|   -5.458332|  3.4722e+02|
|       13426|   -9.926934|   -5.458394|  3.4722e+02|
|       13427|   -9.927053|   -5.458457|  3.4722e+02|
|       13428|   -9.927171|   -5.458519|  3.4722e+02|
|       13429|   -9.927289|   -5.458580|  3.4722e+02|
|       13430|   -9.927408|   -5.458644|  3.4722e+02|
|       13431|   -9.927526|   -5.458705|  3.4722e+02|
|       13432|   -9.927644|   -5.458768|  3.4722e+02|
|       13433|   -9.927763|   -5.458829|  3.4722e+02|
|       13434|   -9.927881|   -5.458892|  3.4722e+02|
|       13435|   -9.927999|   -5.458953|  3.4722e+02|
|       13436|   -9.928118|   -5.459015|  3.4722e+02|
|       13437|   -9.928236|   -5.459077|  3.4722e+02|
|       13438|   -9.928355|   -5.459139|  3.4722e+02|
|       13439|   -9.928473|   -5.459200|  3.4722e+02|
|       13440|   -9.928591|   -5.459263|  3.4722e+02|
|       13441|   -9.928710|   -5.459324|  3.4722e+02|
|       13442|   -9.928828|   -5.459385|  3.4722e+02|
|       13443|   -9.928946|   -5.459447|  3.4722e+02|
|       13444|   -9.929065|   -5.459508|  3.4722e+02|
|       13445|   -9.929183|   -5.459569|  3.4722e+02|
|       13446|   -9.929301|   -5.459632|  3.4722e+02|
|       13447|   -9.929420|   -5.459692|  3.4722e+02|
|       13448|   -9.929538|   -5.459754|  3.4722e+02|
|       13449|   -9.929656|   -5.459816|  3.4722e+02|
|       13450|   -9.929775|   -5.459875|  3.4722e+02|
|       13451|   -9.929893|   -5.459938|  3.4722e+02|
|       13452|   -9.930011|   -5.459999|  3.4722e+02|
|       13453|   -9.930130|   -5.460060|  3.4722e+02|
|       13454|   -9.930248|   -5.460121|  3.4722e+02|
|       13455|   -9.930366|   -5.460182|  3.4722e+02|
|       13456|   -9.930484|   -5.460242|  3.4722e+02|
|       13457|   -9.930603|   -5.460304|  3.4722e+02|
|       13458|   -9.930721|   -5.460364|  3.4722e+02|
|       13459|   -9.930839|   -5.460425|  3.4722e+02|
|       13460|   -9.930958|   -5.460485|  3.4722e+02|
|       13461|   -9.931076|   -5.460546|  3.4722e+02|
|       13462|   -9.931194|   -5.460607|  3.4722e+02|
|       13463|   -9.931313|   -5.460667|  3.4722e+02|
|       13464|   -9.931431|   -5.460727|  3.4722e+02|
|       13465|   -9.931549|   -5.460788|  3.4722e+02|
|       13466|   -9.931668|   -5.460849|  3.4722e+02|
|       13467|   -9.931786|   -5.460909|  3.4722e+02|
|       13468|   -9.931904|   -5.460969|  3.4722e+02|
|       13469|   -9.932023|   -5.461029|  3.4722e+02|
|       13470|   -9.932141|   -5.461090|  3.4722e+02|
|       13471|   -9.932259|   -5.461150|  3.4722e+02|
|       13472|   -9.932378|   -5.461210|  3.4722e+02|
|       13473|   -9.932496|   -5.461270|  3.4722e+02|
|       13474|   -9.932614|   -5.461330|  3.4722e+02|
|       13475|   -9.932732|   -5.461390|  3.4722e+02|
|       13476|   -9.932851|   -5.461450|  3.4722e+02|
|       13477|   -9.932969|   -5.461510|  3.4722e+02|
|       13478|   -9.933087|   -5.461570|  3.4722e+02|
|       13479|   -9.933206|   -5.461629|  3.4722e+02|
|       13480|   -9.933324|   -5.461689|  3.4722e+02|
|       13481|   -9.933442|   -5.461749|  3.4722e+02|
|       13482|   -9.933561|   -5.461808|  3.4722e+02|
|       13483|   -9.933679|   -5.461868|  3.4722e+02|
|       13484|   -9.933797|   -5.461928|  3.4722e+02|
|       13485|   -9.933915|   -5.461987|  3.4722e+02|
|       13486|   -9.934034|   -5.462047|  3.4722e+02|
|       13487|   -9.934152|   -5.462105|  3.4722e+02|
|       13488|   -9.934270|   -5.462165|  3.4722e+02|
|       13489|   -9.934389|   -5.462224|  3.4722e+02|
|       13490|   -9.934507|   -5.462284|  3.4722e+02|
|       13491|   -9.934625|   -5.462343|  3.4722e+02|
|       13492|   -9.934743|   -5.462402|  3.4722e+02|
|       13493|   -9.934862|   -5.462460|  3.4722e+02|
|       13494|   -9.934980|   -5.462521|  3.4722e+02|
|       13495|   -9.935098|   -5.462579|  3.4722e+02|
|       13496|   -9.935216|   -5.462639|  3.4722e+02|
|       13497|   -9.935335|   -5.462697|  3.4722e+02|
|       13498|   -9.935453|   -5.462756|  3.4722e+02|
|       13499|   -9.935571|   -5.462814|  3.4722e+02|
|       13500|   -9.935690|   -5.462874|  3.4722e+02|
|       13501|   -9.935808|   -5.462932|  3.4722e+02|
|       13502|   -9.935926|   -5.462991|  3.4722e+02|
|       13503|   -9.936044|   -5.463050|  3.4722e+02|
|       13504|   -9.936163|   -5.463109|  3.4722e+02|
|       13505|   -9.936281|   -5.463166|  3.4722e+02|
|       13506|   -9.936399|   -5.463226|  3.4722e+02|
|       13507|   -9.936517|   -5.463283|  3.4722e+02|
|       13508|   -9.936636|   -5.463342|  3.4722e+02|
|       13509|   -9.936754|   -5.463400|  3.4722e+02|
|       13510|   -9.936872|   -5.463459|  3.4722e+02|
|       13511|   -9.936990|   -5.463517|  3.4722e+02|
|       13512|   -9.937109|   -5.463576|  3.4722e+02|
|       13513|   -9.937227|   -5.463634|  3.4722e+02|
|       13514|   -9.937345|   -5.463692|  3.4722e+02|
|       13515|   -9.937463|   -5.463750|  3.4722e+02|
|       13516|   -9.937582|   -5.463808|  3.4722e+02|
|       13517|   -9.937700|   -5.463866|  3.4722e+02|
|       13518|   -9.937818|   -5.463923|  3.4722e+02|
|       13519|   -9.937936|   -5.463982|  3.4722e+02|
|       13520|   -9.938055|   -5.464039|  3.4722e+02|
|       13521|   -9.938173|   -5.464097|  3.4722e+02|
|       13522|   -9.938291|   -5.464155|  3.4722e+02|
|       13523|   -9.938409|   -5.464213|  3.4722e+02|
|       13524|   -9.938528|   -5.464270|  3.4722e+02|
|       13525|   -9.938646|   -5.464328|  3.4722e+02|
|       13526|   -9.938764|   -5.464385|  3.4722e+02|
|       13527|   -9.938882|   -5.464443|  3.4722e+02|
|       13528|   -9.939001|   -5.464501|  3.4722e+02|
|       13529|   -9.939119|   -5.464557|  3.4722e+02|
|       13530|   -9.939237|   -5.464615|  3.4722e+02|
|       13531|   -9.939355|   -5.464673|  3.4722e+02|
|       13532|   -9.939473|   -5.464731|  3.4722e+02|
|       13533|   -9.939592|   -5.464786|  3.4722e+02|
|       13534|   -9.939710|   -5.464846|  3.4722e+02|
|       13535|   -9.939828|   -5.464902|  3.4722e+02|
|       13536|   -9.939946|   -5.464959|  3.4722e+02|
|       13537|   -9.940065|   -5.465017|  3.4722e+02|
|       13538|   -9.940183|   -5.465073|  3.4722e+02|
|       13539|   -9.940301|   -5.465131|  3.4722e+02|
|       13540|   -9.940419|   -5.465187|  3.4722e+02|
|       13541|   -9.940537|   -5.465244|  3.4722e+02|
|       13542|   -9.940656|   -5.465301|  3.4722e+02|
|       13543|   -9.940774|   -5.465358|  3.4722e+02|
|       13544|   -9.940892|   -5.465415|  3.4722e+02|
|       13545|   -9.941010|   -5.465471|  3.4722e+02|
|       13546|   -9.941128|   -5.465528|  3.4722e+02|
|       13547|   -9.941247|   -5.465585|  3.4722e+02|
|       13548|   -9.941365|   -5.465641|  3.4722e+02|
|       13549|   -9.941483|   -5.465697|  3.4722e+02|
|       13550|   -9.941601|   -5.465755|  3.4722e+02|
|       13551|   -9.941719|   -5.465811|  3.4722e+02|
|       13552|   -9.941838|   -5.465867|  3.4722e+02|
|       13553|   -9.941956|   -5.465923|  3.4722e+02|
|       13554|   -9.942074|   -5.465980|  3.4722e+02|
|       13555|   -9.942192|   -5.466036|  3.4722e+02|
|       13556|   -9.942310|   -5.466093|  3.4722e+02|
|       13557|   -9.942429|   -5.466149|  3.4722e+02|
|       13558|   -9.942547|   -5.466205|  3.4722e+02|
|       13559|   -9.942665|   -5.466261|  3.4722e+02|
|       13560|   -9.942783|   -5.466317|  3.4722e+02|
|       13561|   -9.942901|   -5.466373|  3.4722e+02|
|       13562|   -9.943020|   -5.466429|  3.4722e+02|
|       13563|   -9.943138|   -5.466485|  3.4722e+02|
|       13564|   -9.943256|   -5.466541|  3.4722e+02|
|       13565|   -9.943374|   -5.466597|  3.4722e+02|
|       13566|   -9.943492|   -5.466653|  3.4722e+02|
|       13567|   -9.943611|   -5.466709|  3.4722e+02|
|       13568|   -9.943729|   -5.466764|  3.4722e+02|
|       13569|   -9.943847|   -5.466820|  3.4722e+02|
|       13570|   -9.943965|   -5.466876|  3.4722e+02|
|       13571|   -9.944083|   -5.466931|  3.4722e+02|
|       13572|   -9.944202|   -5.466987|  3.4722e+02|
|       13573|   -9.944320|   -5.467043|  3.4722e+02|
|       13574|   -9.944438|   -5.467097|  3.4722e+02|
|       13575|   -9.944556|   -5.467154|  3.4722e+02|
|       13576|   -9.944674|   -5.467208|  3.4722e+02|
|       13577|   -9.944792|   -5.467264|  3.4722e+02|
|       13578|   -9.944910|   -5.467319|  3.4722e+02|
|       13579|   -9.945029|   -5.467375|  3.4722e+02|
|       13580|   -9.945147|   -5.467430|  3.4722e+02|
|       13581|   -9.945265|   -5.467485|  3.4722e+02|
|       13582|   -9.945383|   -5.467540|  3.4722e+02|
|       13583|   -9.945501|   -5.467596|  3.4722e+02|
|       13584|   -9.945620|   -5.467651|  3.4722e+02|
|       13585|   -9.945738|   -5.467705|  3.4722e+02|
|       13586|   -9.945856|   -5.467761|  3.4722e+02|
|       13587|   -9.945974|   -5.467816|  3.4722e+02|
|       13588|   -9.946092|   -5.467870|  3.4722e+02|
|       13589|   -9.946210|   -5.467924|  3.4722e+02|
|       13590|   -9.946328|   -5.467980|  3.4722e+02|
|       13591|   -9.946447|   -5.468035|  3.4722e+02|
|       13592|   -9.946565|   -5.468089|  3.4722e+02|
|       13593|   -9.946683|   -5.468144|  3.4722e+02|
|       13594|   -9.946801|   -5.468198|  3.4722e+02|
|       13595|   -9.946919|   -5.468253|  3.4722e+02|
|       13596|   -9.947037|   -5.468308|  3.4722e+02|
|       13597|   -9.947156|   -5.468362|  3.4722e+02|
|       13598|   -9.947274|   -5.468416|  3.4722e+02|
|       13599|   -9.947392|   -5.468471|  3.4722e+02|
|       13600|   -9.947510|   -5.468527|  3.4722e+02|
|       13601|   -9.947628|   -5.468580|  3.4722e+02|
|       13602|   -9.947746|   -5.468634|  3.4722e+02|
|       13603|   -9.947864|   -5.468689|  3.4722e+02|
|       13604|   -9.947983|   -5.468743|  3.4722e+02|
|       13605|   -9.948101|   -5.468797|  3.4722e+02|
|       13606|   -9.948219|   -5.468852|  3.4722e+02|
|       13607|   -9.948337|   -5.468906|  3.4722e+02|
|       13608|   -9.948455|   -5.468960|  3.4722e+02|
|       13609|   -9.948573|   -5.469013|  3.4722e+02|
|       13610|   -9.948691|   -5.469068|  3.4722e+02|
|       13611|   -9.948809|   -5.469121|  3.4722e+02|
|       13612|   -9.948928|   -5.469176|  3.4722e+02|
|       13613|   -9.949046|   -5.469229|  3.4722e+02|
|       13614|   -9.949164|   -5.469283|  3.4722e+02|
|       13615|   -9.949282|   -5.469337|  3.4722e+02|
|       13616|   -9.949400|   -5.469392|  3.4722e+02|
|       13617|   -9.949518|   -5.469444|  3.4722e+02|
|       13618|   -9.949636|   -5.469498|  3.4722e+02|
|       13619|   -9.949754|   -5.469552|  3.4722e+02|
|       13620|   -9.949873|   -5.469605|  3.4722e+02|
|       13621|   -9.949991|   -5.469660|  3.4722e+02|
|       13622|   -9.950109|   -5.469713|  3.4722e+02|
|       13623|   -9.950227|   -5.469766|  3.4722e+02|
|       13624|   -9.950345|   -5.469820|  3.4722e+02|
|       13625|   -9.950463|   -5.469873|  3.4722e+02|
|       13626|   -9.950581|   -5.469926|  3.4722e+02|
|       13627|   -9.950699|   -5.469979|  3.4722e+02|
|       13628|   -9.950817|   -5.470033|  3.4722e+02|
|       13629|   -9.950935|   -5.470087|  3.4722e+02|
|       13630|   -9.951054|   -5.470139|  3.4722e+02|
|       13631|   -9.951172|   -5.470193|  3.4722e+02|
|       13632|   -9.951290|   -5.470246|  3.4722e+02|
|       13633|   -9.951408|   -5.470298|  3.4722e+02|
|       13634|   -9.951526|   -5.470352|  3.4722e+02|
|       13635|   -9.951644|   -5.470404|  3.4722e+02|
|       13636|   -9.951762|   -5.470458|  3.4722e+02|
|       13637|   -9.951880|   -5.470511|  3.4722e+02|
|       13638|   -9.951998|   -5.470564|  3.4722e+02|
|       13639|   -9.952116|   -5.470617|  3.4722e+02|
|       13640|   -9.952235|   -5.470669|  3.4722e+02|
|       13641|   -9.952353|   -5.470722|  3.4722e+02|
|       13642|   -9.952471|   -5.470774|  3.4722e+02|
|       13643|   -9.952589|   -5.470828|  3.4722e+02|
|       13644|   -9.952707|   -5.470880|  3.4722e+02|
|       13645|   -9.952825|   -5.470933|  3.4722e+02|
|       13646|   -9.952943|   -5.470985|  3.4722e+02|
|       13647|   -9.953061|   -5.471038|  3.4722e+02|
|       13648|   -9.953179|   -5.471090|  3.4722e+02|
|       13649|   -9.953297|   -5.471143|  3.4722e+02|
|       13650|   -9.953415|   -5.471195|  3.4722e+02|
|       13651|   -9.953534|   -5.471247|  3.4722e+02|
|       13652|   -9.953652|   -5.471300|  3.4722e+02|
|       13653|   -9.953770|   -5.471353|  3.4722e+02|
|       13654|   -9.953888|   -5.471404|  3.4722e+02|
|       13655|   -9.954006|   -5.471457|  3.4722e+02|
|       13656|   -9.954124|   -5.471509|  3.4722e+02|
|       13657|   -9.954242|   -5.471561|  3.4722e+02|
|       13658|   -9.954360|   -5.471613|  3.4722e+02|
|       13659|   -9.954478|   -5.471665|  3.4722e+02|
|       13660|   -9.954596|   -5.471717|  3.4722e+02|
|       13661|   -9.954714|   -5.471769|  3.4722e+02|
|       13662|   -9.954832|   -5.471821|  3.4722e+02|
|       13663|   -9.954950|   -5.471874|  3.4722e+02|
|       13664|   -9.955068|   -5.471925|  3.4722e+02|
|       13665|   -9.955187|   -5.471978|  3.4722e+02|
|       13666|   -9.955305|   -5.472029|  3.4722e+02|
|       13667|   -9.955423|   -5.472081|  3.4722e+02|
|       13668|   -9.955541|   -5.472132|  3.4722e+02|
|       13669|   -9.955659|   -5.472185|  3.4722e+02|
|       13670|   -9.955777|   -5.472235|  3.4722e+02|
|       13671|   -9.955895|   -5.472287|  3.4722e+02|
|       13672|   -9.956013|   -5.472340|  3.4722e+02|
|       13673|   -9.956131|   -5.472390|  3.4722e+02|
|       13674|   -9.956249|   -5.472442|  3.4722e+02|
|       13675|   -9.956367|   -5.472494|  3.4722e+02|
|       13676|   -9.956485|   -5.472545|  3.4722e+02|
|       13677|   -9.956603|   -5.472597|  3.4722e+02|
|       13678|   -9.956721|   -5.472648|  3.4722e+02|
|       13679|   -9.956839|   -5.472699|  3.4722e+02|
|       13680|   -9.956957|   -5.472751|  3.4722e+02|
|       13681|   -9.957075|   -5.472801|  3.4722e+02|
|       13682|   -9.957193|   -5.472854|  3.4722e+02|
|       13683|   -9.957311|   -5.472904|  3.4722e+02|
|       13684|   -9.957430|   -5.472955|  3.4722e+02|
|       13685|   -9.957548|   -5.473006|  3.4722e+02|
|       13686|   -9.957666|   -5.473058|  3.4722e+02|
|       13687|   -9.957784|   -5.473109|  3.4722e+02|
|       13688|   -9.957902|   -5.473159|  3.4722e+02|
|       13689|   -9.958020|   -5.473211|  3.4722e+02|
|       13690|   -9.958138|   -5.473262|  3.4722e+02|
|       13691|   -9.958256|   -5.473313|  3.4722e+02|
|       13692|   -9.958374|   -5.473363|  3.4722e+02|
|       13693|   -9.958492|   -5.473414|  3.4722e+02|
|       13694|   -9.958610|   -5.473464|  3.4722e+02|
|       13695|   -9.958728|   -5.473516|  3.4722e+02|
|       13696|   -9.958846|   -5.473567|  3.4722e+02|
|       13697|   -9.958964|   -5.473617|  3.4722e+02|
|       13698|   -9.959082|   -5.473667|  3.4722e+02|
|       13699|   -9.959200|   -5.473719|  3.4722e+02|
|       13700|   -9.959318|   -5.473769|  3.4722e+02|
|       13701|   -9.959436|   -5.473820|  3.4722e+02|
|       13702|   -9.959554|   -5.473871|  3.4722e+02|
|       13703|   -9.959672|   -5.473920|  3.4722e+02|
|       13704|   -9.959790|   -5.473971|  3.4722e+02|
|       13705|   -9.959908|   -5.474022|  3.4722e+02|
|       13706|   -9.960026|   -5.474072|  3.4722e+02|
|       13707|   -9.960144|   -5.474122|  3.4722e+02|
|       13708|   -9.960262|   -5.474173|  3.4722e+02|
|       13709|   -9.960380|   -5.474223|  3.4722e+02|
|       13710|   -9.960498|   -5.474273|  3.4722e+02|
|       13711|   -9.960616|   -5.474323|  3.4722e+02|
|       13712|   -9.960734|   -5.474373|  3.4722e+02|
|       13713|   -9.960852|   -5.474423|  3.4722e+02|
|       13